
*** ChampSim Multicore Out-of-Order Simulator ***

Warmup Instructions: 5000000
Simulation Instructions: 200000000
Number of CPUs: 1
LLC sets: 2048
LLC ways: 16
Off-chip DRAM Size: 4096 MB Channels: 1 Width: 64-bit Data Rate: 3200 MT/s

CPU 0 runs /scratch/vsgirelli/ChampSim/trabalho_traces//401.bzip2-38B.champsimtrace.xz
CPU 0 L1D next line prefetcher
L2C Signature Path Prefetcher
Initialize DRRIP state
Assign rand_sets[0]: 454  LLC: 2048
rand_sets[0]: 454
Assign rand_sets[1]: 1662  LLC: 2048
rand_sets[1]: 1662
Assign rand_sets[2]: 1921  LLC: 2048
rand_sets[2]: 1921
Assign rand_sets[3]: 1131  LLC: 2048
rand_sets[3]: 1131
Assign rand_sets[4]: 331  LLC: 2048
rand_sets[4]: 331
Assign rand_sets[5]: 1531  LLC: 2048
rand_sets[5]: 1531
Assign rand_sets[6]: 482  LLC: 2048
rand_sets[6]: 482
Assign rand_sets[7]: 1275  LLC: 2048
rand_sets[7]: 1275
Assign rand_sets[8]: 1876  LLC: 2048
rand_sets[8]: 1876
Assign rand_sets[9]: 2038  LLC: 2048
rand_sets[9]: 2038
Assign rand_sets[10]: 701  LLC: 2048
rand_sets[10]: 701
Assign rand_sets[11]: 479  LLC: 2048
rand_sets[11]: 479
Assign rand_sets[12]: 892  LLC: 2048
rand_sets[12]: 892
Assign rand_sets[13]: 1820  LLC: 2048
rand_sets[13]: 1820
Assign rand_sets[14]: 1505  LLC: 2048
rand_sets[14]: 1505
Assign rand_sets[15]: 1159  LLC: 2048
rand_sets[15]: 1159
Assign rand_sets[16]: 513  LLC: 2048
rand_sets[16]: 513
Assign rand_sets[17]: 703  LLC: 2048
rand_sets[17]: 703
Assign rand_sets[18]: 561  LLC: 2048
rand_sets[18]: 561
Assign rand_sets[19]: 990  LLC: 2048
rand_sets[19]: 990
Assign rand_sets[20]: 342  LLC: 2048
rand_sets[20]: 342
Assign rand_sets[21]: 882  LLC: 2048
rand_sets[21]: 882
Assign rand_sets[22]: 15  LLC: 2048
rand_sets[22]: 15
Assign rand_sets[23]: 71  LLC: 2048
rand_sets[23]: 71
Assign rand_sets[24]: 1127  LLC: 2048
rand_sets[24]: 1127
Assign rand_sets[25]: 1382  LLC: 2048
rand_sets[25]: 1382
Assign rand_sets[26]: 647  LLC: 2048
rand_sets[26]: 647
Assign rand_sets[27]: 857  LLC: 2048
rand_sets[27]: 857
Assign rand_sets[28]: 1450  LLC: 2048
rand_sets[28]: 1450
Assign rand_sets[29]: 1160  LLC: 2048
rand_sets[29]: 1160
Assign rand_sets[30]: 1852  LLC: 2048
rand_sets[30]: 1852
Assign rand_sets[31]: 1881  LLC: 2048
rand_sets[31]: 1881
Assign rand_sets[32]: 1770  LLC: 2048
rand_sets[32]: 1770
Assign rand_sets[33]: 1622  LLC: 2048
rand_sets[33]: 1622
Assign rand_sets[34]: 275  LLC: 2048
rand_sets[34]: 275
Assign rand_sets[35]: 635  LLC: 2048
rand_sets[35]: 635
Assign rand_sets[36]: 466  LLC: 2048
rand_sets[36]: 466
Assign rand_sets[37]: 1413  LLC: 2048
rand_sets[37]: 1413
Assign rand_sets[38]: 417  LLC: 2048
rand_sets[38]: 417
Assign rand_sets[39]: 472  LLC: 2048
rand_sets[39]: 472
Assign rand_sets[40]: 1340  LLC: 2048
rand_sets[40]: 1340
Assign rand_sets[41]: 852  LLC: 2048
rand_sets[41]: 852
Assign rand_sets[42]: 1365  LLC: 2048
rand_sets[42]: 1365
Assign rand_sets[43]: 47  LLC: 2048
rand_sets[43]: 47
Assign rand_sets[44]: 823  LLC: 2048
rand_sets[44]: 823
Assign rand_sets[45]: 686  LLC: 2048
rand_sets[45]: 686
Assign rand_sets[46]: 1637  LLC: 2048
rand_sets[46]: 1637
Assign rand_sets[47]: 1115  LLC: 2048
rand_sets[47]: 1115
Assign rand_sets[48]: 986  LLC: 2048
rand_sets[48]: 986
Assign rand_sets[49]: 258  LLC: 2048
rand_sets[49]: 258
Assign rand_sets[50]: 633  LLC: 2048
rand_sets[50]: 633
Assign rand_sets[51]: 920  LLC: 2048
rand_sets[51]: 920
Assign rand_sets[52]: 204  LLC: 2048
rand_sets[52]: 204
Assign rand_sets[53]: 227  LLC: 2048
rand_sets[53]: 227
Assign rand_sets[54]: 1818  LLC: 2048
rand_sets[54]: 1818
Assign rand_sets[55]: 886  LLC: 2048
rand_sets[55]: 886
Assign rand_sets[56]: 1422  LLC: 2048
rand_sets[56]: 1422
Assign rand_sets[57]: 607  LLC: 2048
rand_sets[57]: 607
Assign rand_sets[58]: 217  LLC: 2048
rand_sets[58]: 217
Assign rand_sets[59]: 1945  LLC: 2048
rand_sets[59]: 1945
Assign rand_sets[60]: 143  LLC: 2048
rand_sets[60]: 143
Assign rand_sets[61]: 1311  LLC: 2048
rand_sets[61]: 1311
Assign rand_sets[62]: 319  LLC: 2048
rand_sets[62]: 319
Assign rand_sets[63]: 1846  LLC: 2048
rand_sets[63]: 1846
LLC Next Line Prefetcher

Warmup complete CPU 0 instructions: 5000003 cycles: 1469071 (Simulation time: 0 hr 0 min 9 sec) 

Heartbeat CPU 0 instructions: 10000001 cycles: 5599106 heartbeat IPC: 1.786 cumulative IPC: 1.21064 (Simulation time: 0 hr 0 min 18 sec) 
Heartbeat CPU 0 instructions: 20000000 cycles: 15457201 heartbeat IPC: 1.01439 cumulative IPC: 1.07234 (Simulation time: 0 hr 0 min 45 sec) 
Heartbeat CPU 0 instructions: 30000003 cycles: 27308150 heartbeat IPC: 0.843815 cumulative IPC: 0.967527 (Simulation time: 0 hr 1 min 20 sec) 
Heartbeat CPU 0 instructions: 40000001 cycles: 37541388 heartbeat IPC: 0.977208 cumulative IPC: 0.970273 (Simulation time: 0 hr 1 min 49 sec) 
Heartbeat CPU 0 instructions: 50000002 cycles: 43595056 heartbeat IPC: 1.65189 cumulative IPC: 1.06822 (Simulation time: 0 hr 2 min 13 sec) 
Heartbeat CPU 0 instructions: 60000000 cycles: 49354064 heartbeat IPC: 1.73641 cumulative IPC: 1.14859 (Simulation time: 0 hr 2 min 38 sec) 
Heartbeat CPU 0 instructions: 70000000 cycles: 55134950 heartbeat IPC: 1.72984 cumulative IPC: 1.2112 (Simulation time: 0 hr 3 min 3 sec) 
Heartbeat CPU 0 instructions: 80000002 cycles: 61383008 heartbeat IPC: 1.6005 cumulative IPC: 1.2518 (Simulation time: 0 hr 3 min 24 sec) 
Heartbeat CPU 0 instructions: 90000000 cycles: 69149465 heartbeat IPC: 1.28759 cumulative IPC: 1.2559 (Simulation time: 0 hr 3 min 47 sec) 
Heartbeat CPU 0 instructions: 100000003 cycles: 78029733 heartbeat IPC: 1.12609 cumulative IPC: 1.24085 (Simulation time: 0 hr 4 min 8 sec) 
Heartbeat CPU 0 instructions: 110000000 cycles: 87415774 heartbeat IPC: 1.06541 cumulative IPC: 1.22169 (Simulation time: 0 hr 4 min 30 sec) 
Heartbeat CPU 0 instructions: 120000001 cycles: 96834201 heartbeat IPC: 1.06175 cumulative IPC: 1.20589 (Simulation time: 0 hr 4 min 52 sec) 
Heartbeat CPU 0 instructions: 130000003 cycles: 106514052 heartbeat IPC: 1.03307 cumulative IPC: 1.18997 (Simulation time: 0 hr 5 min 14 sec) 
Heartbeat CPU 0 instructions: 140000000 cycles: 116182526 heartbeat IPC: 1.03429 cumulative IPC: 1.17685 (Simulation time: 0 hr 5 min 36 sec) 
Heartbeat CPU 0 instructions: 150000000 cycles: 125670525 heartbeat IPC: 1.05396 cumulative IPC: 1.16746 (Simulation time: 0 hr 5 min 57 sec) 
Heartbeat CPU 0 instructions: 160000001 cycles: 135252757 heartbeat IPC: 1.0436 cumulative IPC: 1.15859 (Simulation time: 0 hr 6 min 19 sec) 
Heartbeat CPU 0 instructions: 170000000 cycles: 145330536 heartbeat IPC: 0.992282 cumulative IPC: 1.14694 (Simulation time: 0 hr 6 min 41 sec) 
Heartbeat CPU 0 instructions: 180000001 cycles: 154930453 heartbeat IPC: 1.04168 cumulative IPC: 1.14035 (Simulation time: 0 hr 7 min 3 sec) 
Heartbeat CPU 0 instructions: 190000002 cycles: 163598386 heartbeat IPC: 1.15368 cumulative IPC: 1.14106 (Simulation time: 0 hr 7 min 23 sec) 
Heartbeat CPU 0 instructions: 200000001 cycles: 171801488 heartbeat IPC: 1.21905 cumulative IPC: 1.14482 (Simulation time: 0 hr 7 min 40 sec) 
Finished CPU 0 instructions: 200000002 cycles: 174419262 cumulative IPC: 1.14666 (Simulation time: 0 hr 7 min 50 sec) 

ChampSim completed all CPUs

Region of Interest Statistics

CPU 0 cumulative IPC: 1.14666 instructions: 200000002 cycles: 174419262
L1D TOTAL     ACCESS:   99010679  HIT:   95466708  MISS:    3543971
L1D LOAD      ACCESS:   38077697  HIT:   36541836  MISS:    1535861
L1D RFO       ACCESS:   23897100  HIT:   23360325  MISS:     536775
L1D PREFETCH  ACCESS:   37035882  HIT:   35564547  MISS:    1471335
L1D WRITEBACK ACCESS:          0  HIT:          0  MISS:          0
L1D PREFETCH  REQUESTED:   39132064  ISSUED:   38798199  USEFUL:     392026  USELESS:    1139171
L1D AVERAGE MISS LATENCY: 28.9743 cycles
L1I TOTAL     ACCESS:   34727840  HIT:   34727504  MISS:        336
L1I LOAD      ACCESS:   34727695  HIT:   34727482  MISS:        213
L1I RFO       ACCESS:          0  HIT:          0  MISS:          0
L1I PREFETCH  ACCESS:        145  HIT:         22  MISS:        123
L1I WRITEBACK ACCESS:          0  HIT:          0  MISS:          0
L1I PREFETCH  REQUESTED:        454  ISSUED:        454  USEFUL:        108  USELESS:          0
L1I AVERAGE MISS LATENCY: 96.6726 cycles
L2C TOTAL     ACCESS:    4524468  HIT:    3497081  MISS:    1027387
L2C LOAD      ACCESS:    1484839  HIT:    1220846  MISS:     263993
L2C RFO       ACCESS:     536627  HIT:     198201  MISS:     338426
L2C PREFETCH  ACCESS:    1780433  HIT:    1355927  MISS:     424506
L2C WRITEBACK ACCESS:     722569  HIT:     722107  MISS:        462
L2C PREFETCH  REQUESTED:    2089004  ISSUED:    1874761  USEFUL:     155407  USELESS:     281330
L2C AVERAGE MISS LATENCY: 55.3925 cycles
LLC TOTAL     ACCESS:    3566547  HIT:    3337817  MISS:     228730
LLC LOAD      ACCESS:     262660  HIT:     251414  MISS:      11246
LLC RFO       ACCESS:     338417  HIT:     232765  MISS:     105652
LLC PREFETCH  ACCESS:    2556536  HIT:    2448905  MISS:     107631
LLC WRITEBACK ACCESS:     408934  HIT:     404733  MISS:       4201
LLC PREFETCH  REQUESTED:    1953357  ISSUED:    1923507  USEFUL:      30906  USELESS:      68175
LLC AVERAGE MISS LATENCY: 178.903 cycles
Major fault: 0 Minor fault: 1126
CPU 0 L1D next line prefetcher final stats

L2C Signature Path Prefetcher final stats
LLC Next Line Prefetcher Final Stats: none

DRAM Statistics
 CHANNEL 0
 RQ ROW_BUFFER_HIT:      66956  ROW_BUFFER_MISS:     157411
 DBUS_CONGESTED:     111314
 WQ ROW_BUFFER_HIT:      35319  ROW_BUFFER_MISS:     107222  FULL:          0

 AVG_CONGESTED_CYCLE: 6

CPU 0 Branch Prediction Accuracy: 92.9889% MPKI: 10.2307 Average ROB Occupancy at Mispredict: 23.0643

Branch types
NOT_BRANCH: 170815473 85.4077%
BRANCH_DIRECT_JUMP: 2600193 1.3001%
BRANCH_INDIRECT: 0 0%
BRANCH_CONDITIONAL: 24613826 12.3069%
BRANCH_DIRECT_CALL: 985148 0.492574%
BRANCH_INDIRECT_CALL: 0 0%
BRANCH_RETURN: 985148 0.492574%
BRANCH_OTHER: 0 0%

