
*** ChampSim Multicore Out-of-Order Simulator ***

Warmup Instructions: 5000000
Simulation Instructions: 200000000
Number of CPUs: 1
LLC sets: 2048
LLC ways: 16
Off-chip DRAM Size: 4096 MB Channels: 1 Width: 64-bit Data Rate: 3200 MT/s

CPU 0 runs /scratch/vsgirelli/ChampSim/trabalho_traces//403.gcc-48B.champsimtrace.xz
CPU 0 L1D next line prefetcher
L2C Signature Path Prefetcher
Initialize DRRIP state
Assign rand_sets[0]: 454  LLC: 2048
rand_sets[0]: 454
Assign rand_sets[1]: 1662  LLC: 2048
rand_sets[1]: 1662
Assign rand_sets[2]: 1921  LLC: 2048
rand_sets[2]: 1921
Assign rand_sets[3]: 1131  LLC: 2048
rand_sets[3]: 1131
Assign rand_sets[4]: 331  LLC: 2048
rand_sets[4]: 331
Assign rand_sets[5]: 1531  LLC: 2048
rand_sets[5]: 1531
Assign rand_sets[6]: 482  LLC: 2048
rand_sets[6]: 482
Assign rand_sets[7]: 1275  LLC: 2048
rand_sets[7]: 1275
Assign rand_sets[8]: 1876  LLC: 2048
rand_sets[8]: 1876
Assign rand_sets[9]: 2038  LLC: 2048
rand_sets[9]: 2038
Assign rand_sets[10]: 701  LLC: 2048
rand_sets[10]: 701
Assign rand_sets[11]: 479  LLC: 2048
rand_sets[11]: 479
Assign rand_sets[12]: 892  LLC: 2048
rand_sets[12]: 892
Assign rand_sets[13]: 1820  LLC: 2048
rand_sets[13]: 1820
Assign rand_sets[14]: 1505  LLC: 2048
rand_sets[14]: 1505
Assign rand_sets[15]: 1159  LLC: 2048
rand_sets[15]: 1159
Assign rand_sets[16]: 513  LLC: 2048
rand_sets[16]: 513
Assign rand_sets[17]: 703  LLC: 2048
rand_sets[17]: 703
Assign rand_sets[18]: 561  LLC: 2048
rand_sets[18]: 561
Assign rand_sets[19]: 990  LLC: 2048
rand_sets[19]: 990
Assign rand_sets[20]: 342  LLC: 2048
rand_sets[20]: 342
Assign rand_sets[21]: 882  LLC: 2048
rand_sets[21]: 882
Assign rand_sets[22]: 15  LLC: 2048
rand_sets[22]: 15
Assign rand_sets[23]: 71  LLC: 2048
rand_sets[23]: 71
Assign rand_sets[24]: 1127  LLC: 2048
rand_sets[24]: 1127
Assign rand_sets[25]: 1382  LLC: 2048
rand_sets[25]: 1382
Assign rand_sets[26]: 647  LLC: 2048
rand_sets[26]: 647
Assign rand_sets[27]: 857  LLC: 2048
rand_sets[27]: 857
Assign rand_sets[28]: 1450  LLC: 2048
rand_sets[28]: 1450
Assign rand_sets[29]: 1160  LLC: 2048
rand_sets[29]: 1160
Assign rand_sets[30]: 1852  LLC: 2048
rand_sets[30]: 1852
Assign rand_sets[31]: 1881  LLC: 2048
rand_sets[31]: 1881
Assign rand_sets[32]: 1770  LLC: 2048
rand_sets[32]: 1770
Assign rand_sets[33]: 1622  LLC: 2048
rand_sets[33]: 1622
Assign rand_sets[34]: 275  LLC: 2048
rand_sets[34]: 275
Assign rand_sets[35]: 635  LLC: 2048
rand_sets[35]: 635
Assign rand_sets[36]: 466  LLC: 2048
rand_sets[36]: 466
Assign rand_sets[37]: 1413  LLC: 2048
rand_sets[37]: 1413
Assign rand_sets[38]: 417  LLC: 2048
rand_sets[38]: 417
Assign rand_sets[39]: 472  LLC: 2048
rand_sets[39]: 472
Assign rand_sets[40]: 1340  LLC: 2048
rand_sets[40]: 1340
Assign rand_sets[41]: 852  LLC: 2048
rand_sets[41]: 852
Assign rand_sets[42]: 1365  LLC: 2048
rand_sets[42]: 1365
Assign rand_sets[43]: 47  LLC: 2048
rand_sets[43]: 47
Assign rand_sets[44]: 823  LLC: 2048
rand_sets[44]: 823
Assign rand_sets[45]: 686  LLC: 2048
rand_sets[45]: 686
Assign rand_sets[46]: 1637  LLC: 2048
rand_sets[46]: 1637
Assign rand_sets[47]: 1115  LLC: 2048
rand_sets[47]: 1115
Assign rand_sets[48]: 986  LLC: 2048
rand_sets[48]: 986
Assign rand_sets[49]: 258  LLC: 2048
rand_sets[49]: 258
Assign rand_sets[50]: 633  LLC: 2048
rand_sets[50]: 633
Assign rand_sets[51]: 920  LLC: 2048
rand_sets[51]: 920
Assign rand_sets[52]: 204  LLC: 2048
rand_sets[52]: 204
Assign rand_sets[53]: 227  LLC: 2048
rand_sets[53]: 227
Assign rand_sets[54]: 1818  LLC: 2048
rand_sets[54]: 1818
Assign rand_sets[55]: 886  LLC: 2048
rand_sets[55]: 886
Assign rand_sets[56]: 1422  LLC: 2048
rand_sets[56]: 1422
Assign rand_sets[57]: 607  LLC: 2048
rand_sets[57]: 607
Assign rand_sets[58]: 217  LLC: 2048
rand_sets[58]: 217
Assign rand_sets[59]: 1945  LLC: 2048
rand_sets[59]: 1945
Assign rand_sets[60]: 143  LLC: 2048
rand_sets[60]: 143
Assign rand_sets[61]: 1311  LLC: 2048
rand_sets[61]: 1311
Assign rand_sets[62]: 319  LLC: 2048
rand_sets[62]: 319
Assign rand_sets[63]: 1846  LLC: 2048
rand_sets[63]: 1846
LLC Next Line Prefetcher

Warmup complete CPU 0 instructions: 5000001 cycles: 2078042 (Simulation time: 0 hr 0 min 15 sec) 

Heartbeat CPU 0 instructions: 10000001 cycles: 5641696 heartbeat IPC: 1.77252 cumulative IPC: 1.40305 (Simulation time: 0 hr 0 min 32 sec) 
Heartbeat CPU 0 instructions: 20000001 cycles: 12788620 heartbeat IPC: 1.3992 cumulative IPC: 1.40048 (Simulation time: 0 hr 1 min 7 sec) 
Heartbeat CPU 0 instructions: 30000001 cycles: 19926048 heartbeat IPC: 1.40106 cumulative IPC: 1.40072 (Simulation time: 0 hr 1 min 42 sec) 
Heartbeat CPU 0 instructions: 40000001 cycles: 27054928 heartbeat IPC: 1.40274 cumulative IPC: 1.4013 (Simulation time: 0 hr 2 min 17 sec) 
Heartbeat CPU 0 instructions: 50000000 cycles: 34165963 heartbeat IPC: 1.40626 cumulative IPC: 1.4024 (Simulation time: 0 hr 2 min 52 sec) 
Heartbeat CPU 0 instructions: 60000001 cycles: 41281700 heartbeat IPC: 1.40534 cumulative IPC: 1.40293 (Simulation time: 0 hr 3 min 27 sec) 
Heartbeat CPU 0 instructions: 70000002 cycles: 48415602 heartbeat IPC: 1.40176 cumulative IPC: 1.40275 (Simulation time: 0 hr 4 min 2 sec) 
Heartbeat CPU 0 instructions: 80000001 cycles: 55528508 heartbeat IPC: 1.40589 cumulative IPC: 1.40317 (Simulation time: 0 hr 4 min 37 sec) 
Heartbeat CPU 0 instructions: 90000002 cycles: 62671865 heartbeat IPC: 1.3999 cumulative IPC: 1.40278 (Simulation time: 0 hr 5 min 13 sec) 
Heartbeat CPU 0 instructions: 100000001 cycles: 69798552 heartbeat IPC: 1.40318 cumulative IPC: 1.40282 (Simulation time: 0 hr 5 min 48 sec) 
Heartbeat CPU 0 instructions: 110000000 cycles: 76893668 heartbeat IPC: 1.40942 cumulative IPC: 1.40345 (Simulation time: 0 hr 6 min 24 sec) 
Heartbeat CPU 0 instructions: 120000000 cycles: 84057201 heartbeat IPC: 1.39596 cumulative IPC: 1.4028 (Simulation time: 0 hr 6 min 59 sec) 
Heartbeat CPU 0 instructions: 130000003 cycles: 91205279 heartbeat IPC: 1.39898 cumulative IPC: 1.40249 (Simulation time: 0 hr 7 min 34 sec) 
Heartbeat CPU 0 instructions: 140000002 cycles: 98363968 heartbeat IPC: 1.3969 cumulative IPC: 1.40207 (Simulation time: 0 hr 8 min 9 sec) 
Heartbeat CPU 0 instructions: 150000000 cycles: 105497012 heartbeat IPC: 1.40193 cumulative IPC: 1.40206 (Simulation time: 0 hr 8 min 44 sec) 
Heartbeat CPU 0 instructions: 160000001 cycles: 112631026 heartbeat IPC: 1.40174 cumulative IPC: 1.40204 (Simulation time: 0 hr 9 min 19 sec) 
Heartbeat CPU 0 instructions: 170000002 cycles: 119758160 heartbeat IPC: 1.40309 cumulative IPC: 1.40211 (Simulation time: 0 hr 9 min 55 sec) 
Heartbeat CPU 0 instructions: 180000000 cycles: 126889220 heartbeat IPC: 1.40232 cumulative IPC: 1.40212 (Simulation time: 0 hr 10 min 30 sec) 
Heartbeat CPU 0 instructions: 190000001 cycles: 133993403 heartbeat IPC: 1.40762 cumulative IPC: 1.40241 (Simulation time: 0 hr 11 min 5 sec) 
Heartbeat CPU 0 instructions: 200000002 cycles: 141136086 heartbeat IPC: 1.40003 cumulative IPC: 1.40229 (Simulation time: 0 hr 11 min 40 sec) 
Finished CPU 0 instructions: 200000001 cycles: 142633915 cumulative IPC: 1.40219 (Simulation time: 0 hr 11 min 58 sec) 

ChampSim completed all CPUs

Region of Interest Statistics

CPU 0 cumulative IPC: 1.40219 instructions: 200000001 cycles: 142633915
L1D TOTAL     ACCESS:  100465172  HIT:   98596084  MISS:    1869088
L1D LOAD      ACCESS:   32680510  HIT:   31736391  MISS:     944119
L1D RFO       ACCESS:   35412372  HIT:   35404902  MISS:       7470
L1D PREFETCH  ACCESS:   32372290  HIT:   31454791  MISS:     917499
L1D WRITEBACK ACCESS:          0  HIT:          0  MISS:          0
L1D PREFETCH  REQUESTED:   33929816  ISSUED:   33835931  USEFUL:     365769  USELESS:     576079
L1D AVERAGE MISS LATENCY: 19.4953 cycles
L1I TOTAL     ACCESS:   52125679  HIT:   52125678  MISS:          1
L1I LOAD      ACCESS:   52125678  HIT:   52125677  MISS:          1
L1I RFO       ACCESS:          0  HIT:          0  MISS:          0
L1I PREFETCH  ACCESS:          1  HIT:          1  MISS:          0
L1I WRITEBACK ACCESS:          0  HIT:          0  MISS:          0
L1I PREFETCH  REQUESTED:        139  ISSUED:        139  USEFUL:         27  USELESS:          0
L1I AVERAGE MISS LATENCY: 44 cycles
L2C TOTAL     ACCESS:    1905397  HIT:    1835442  MISS:      69955
L2C LOAD      ACCESS:     886328  HIT:     852626  MISS:      33702
L2C RFO       ACCESS:       7469  HIT:       1451  MISS:       6018
L2C PREFETCH  ACCESS:     978992  HIT:     948767  MISS:      30225
L2C WRITEBACK ACCESS:      32608  HIT:      32598  MISS:         10
L2C PREFETCH  REQUESTED:     200942  ISSUED:     200942  USEFUL:       3817  USELESS:      24589
L2C AVERAGE MISS LATENCY: 134.543 cycles
LLC TOTAL     ACCESS:     474242  HIT:     388888  MISS:      85354
LLC LOAD      ACCESS:      33696  HIT:      11847  MISS:      21849
LLC RFO       ACCESS:       6018  HIT:         89  MISS:       5929
LLC PREFETCH  ACCESS:     420826  HIT:     364194  MISS:      56632
LLC WRITEBACK ACCESS:      13702  HIT:      12758  MISS:        944
LLC PREFETCH  REQUESTED:     251262  ISSUED:     249188  USEFUL:      11789  USELESS:      31725
LLC AVERAGE MISS LATENCY: 163.392 cycles
Major fault: 0 Minor fault: 2937
CPU 0 L1D next line prefetcher final stats

L2C Signature Path Prefetcher final stats
LLC Next Line Prefetcher Final Stats: none

DRAM Statistics
 CHANNEL 0
 RQ ROW_BUFFER_HIT:      19284  ROW_BUFFER_MISS:      65126
 DBUS_CONGESTED:      22586
 WQ ROW_BUFFER_HIT:       1764  ROW_BUFFER_MISS:       8380  FULL:          0

 AVG_CONGESTED_CYCLE: 4

CPU 0 Branch Prediction Accuracy: 99.8939% MPKI: 0.23627 Average ROB Occupancy at Mispredict: 162.78

Branch types
NOT_BRANCH: 155452751 77.7264%
BRANCH_DIRECT_JUMP: 6046045 3.02302%
BRANCH_INDIRECT: 2963980 1.48199%
BRANCH_CONDITIONAL: 29441053 14.7205%
BRANCH_DIRECT_CALL: 3031610 1.5158%
BRANCH_INDIRECT_CALL: 16349 0.0081745%
BRANCH_RETURN: 3047959 1.52398%
BRANCH_OTHER: 0 0%

