
*** ChampSim Multicore Out-of-Order Simulator ***

Warmup Instructions: 5000000
Simulation Instructions: 200000000
Number of CPUs: 1
LLC sets: 2048
LLC ways: 16
Off-chip DRAM Size: 4096 MB Channels: 1 Width: 64-bit Data Rate: 3200 MT/s

CPU 0 runs /scratch/vsgirelli/ChampSim/trabalho_traces//454.calculix-104B.champsimtrace.xz
CPU 0 L1D next line prefetcher
L2C Signature Path Prefetcher
Initialize DRRIP state
Assign rand_sets[0]: 454  LLC: 2048
rand_sets[0]: 454
Assign rand_sets[1]: 1662  LLC: 2048
rand_sets[1]: 1662
Assign rand_sets[2]: 1921  LLC: 2048
rand_sets[2]: 1921
Assign rand_sets[3]: 1131  LLC: 2048
rand_sets[3]: 1131
Assign rand_sets[4]: 331  LLC: 2048
rand_sets[4]: 331
Assign rand_sets[5]: 1531  LLC: 2048
rand_sets[5]: 1531
Assign rand_sets[6]: 482  LLC: 2048
rand_sets[6]: 482
Assign rand_sets[7]: 1275  LLC: 2048
rand_sets[7]: 1275
Assign rand_sets[8]: 1876  LLC: 2048
rand_sets[8]: 1876
Assign rand_sets[9]: 2038  LLC: 2048
rand_sets[9]: 2038
Assign rand_sets[10]: 701  LLC: 2048
rand_sets[10]: 701
Assign rand_sets[11]: 479  LLC: 2048
rand_sets[11]: 479
Assign rand_sets[12]: 892  LLC: 2048
rand_sets[12]: 892
Assign rand_sets[13]: 1820  LLC: 2048
rand_sets[13]: 1820
Assign rand_sets[14]: 1505  LLC: 2048
rand_sets[14]: 1505
Assign rand_sets[15]: 1159  LLC: 2048
rand_sets[15]: 1159
Assign rand_sets[16]: 513  LLC: 2048
rand_sets[16]: 513
Assign rand_sets[17]: 703  LLC: 2048
rand_sets[17]: 703
Assign rand_sets[18]: 561  LLC: 2048
rand_sets[18]: 561
Assign rand_sets[19]: 990  LLC: 2048
rand_sets[19]: 990
Assign rand_sets[20]: 342  LLC: 2048
rand_sets[20]: 342
Assign rand_sets[21]: 882  LLC: 2048
rand_sets[21]: 882
Assign rand_sets[22]: 15  LLC: 2048
rand_sets[22]: 15
Assign rand_sets[23]: 71  LLC: 2048
rand_sets[23]: 71
Assign rand_sets[24]: 1127  LLC: 2048
rand_sets[24]: 1127
Assign rand_sets[25]: 1382  LLC: 2048
rand_sets[25]: 1382
Assign rand_sets[26]: 647  LLC: 2048
rand_sets[26]: 647
Assign rand_sets[27]: 857  LLC: 2048
rand_sets[27]: 857
Assign rand_sets[28]: 1450  LLC: 2048
rand_sets[28]: 1450
Assign rand_sets[29]: 1160  LLC: 2048
rand_sets[29]: 1160
Assign rand_sets[30]: 1852  LLC: 2048
rand_sets[30]: 1852
Assign rand_sets[31]: 1881  LLC: 2048
rand_sets[31]: 1881
Assign rand_sets[32]: 1770  LLC: 2048
rand_sets[32]: 1770
Assign rand_sets[33]: 1622  LLC: 2048
rand_sets[33]: 1622
Assign rand_sets[34]: 275  LLC: 2048
rand_sets[34]: 275
Assign rand_sets[35]: 635  LLC: 2048
rand_sets[35]: 635
Assign rand_sets[36]: 466  LLC: 2048
rand_sets[36]: 466
Assign rand_sets[37]: 1413  LLC: 2048
rand_sets[37]: 1413
Assign rand_sets[38]: 417  LLC: 2048
rand_sets[38]: 417
Assign rand_sets[39]: 472  LLC: 2048
rand_sets[39]: 472
Assign rand_sets[40]: 1340  LLC: 2048
rand_sets[40]: 1340
Assign rand_sets[41]: 852  LLC: 2048
rand_sets[41]: 852
Assign rand_sets[42]: 1365  LLC: 2048
rand_sets[42]: 1365
Assign rand_sets[43]: 47  LLC: 2048
rand_sets[43]: 47
Assign rand_sets[44]: 823  LLC: 2048
rand_sets[44]: 823
Assign rand_sets[45]: 686  LLC: 2048
rand_sets[45]: 686
Assign rand_sets[46]: 1637  LLC: 2048
rand_sets[46]: 1637
Assign rand_sets[47]: 1115  LLC: 2048
rand_sets[47]: 1115
Assign rand_sets[48]: 986  LLC: 2048
rand_sets[48]: 986
Assign rand_sets[49]: 258  LLC: 2048
rand_sets[49]: 258
Assign rand_sets[50]: 633  LLC: 2048
rand_sets[50]: 633
Assign rand_sets[51]: 920  LLC: 2048
rand_sets[51]: 920
Assign rand_sets[52]: 204  LLC: 2048
rand_sets[52]: 204
Assign rand_sets[53]: 227  LLC: 2048
rand_sets[53]: 227
Assign rand_sets[54]: 1818  LLC: 2048
rand_sets[54]: 1818
Assign rand_sets[55]: 886  LLC: 2048
rand_sets[55]: 886
Assign rand_sets[56]: 1422  LLC: 2048
rand_sets[56]: 1422
Assign rand_sets[57]: 607  LLC: 2048
rand_sets[57]: 607
Assign rand_sets[58]: 217  LLC: 2048
rand_sets[58]: 217
Assign rand_sets[59]: 1945  LLC: 2048
rand_sets[59]: 1945
Assign rand_sets[60]: 143  LLC: 2048
rand_sets[60]: 143
Assign rand_sets[61]: 1311  LLC: 2048
rand_sets[61]: 1311
Assign rand_sets[62]: 319  LLC: 2048
rand_sets[62]: 319
Assign rand_sets[63]: 1846  LLC: 2048
rand_sets[63]: 1846
LLC Next Line Prefetcher
xz: /scratch/vsgirelli/ChampSim/trabalho_traces//454.calculix-104B.champsimtrace.xz: Unexpected end of input
*** Reached end of trace for Core: 0 Repeating trace: /scratch/vsgirelli/ChampSim/trabalho_traces//454.calculix-104B.champsimtrace.xz
xz: /scratch/vsgirelli/ChampSim/trabalho_traces//454.calculix-104B.champsimtrace.xz: Unexpected end of input
*** Reached end of trace for Core: 0 Repeating trace: /scratch/vsgirelli/ChampSim/trabalho_traces//454.calculix-104B.champsimtrace.xz
xz: /scratch/vsgirelli/ChampSim/trabalho_traces//454.calculix-104B.champsimtrace.xz: Unexpected end of input
*** Reached end of trace for Core: 0 Repeating trace: /scratch/vsgirelli/ChampSim/trabalho_traces//454.calculix-104B.champsimtrace.xz
xz: /scratch/vsgirelli/ChampSim/trabalho_traces//454.calculix-104B.champsimtrace.xz: Unexpected end of input
*** Reached end of trace for Core: 0 Repeating trace: /scratch/vsgirelli/ChampSim/trabalho_traces//454.calculix-104B.champsimtrace.xz
xz: /scratch/vsgirelli/ChampSim/trabalho_traces//454.calculix-104B.champsimtrace.xz: Unexpected end of input
*** Reached end of trace for Core: 0 Repeating trace: /scratch/vsgirelli/ChampSim/trabalho_traces//454.calculix-104B.champsimtrace.xz
xz: /scratch/vsgirelli/ChampSim/trabalho_traces//454.calculix-104B.champsimtrace.xz: Unexpected end of input
*** Reached end of trace for Core: 0 Repeating trace: /scratch/vsgirelli/ChampSim/trabalho_traces//454.calculix-104B.champsimtrace.xz
xz: /scratch/vsgirelli/ChampSim/trabalho_traces//454.calculix-104B.champsimtrace.xz: Unexpected end of input
*** Reached end of trace for Core: 0 Repeating trace: /scratch/vsgirelli/ChampSim/trabalho_traces//454.calculix-104B.champsimtrace.xz

Warmup complete CPU 0 instructions: 5000001 cycles: 1935018 (Simulation time: 0 hr 0 min 14 sec) 

xz: /scratch/vsgirelli/ChampSim/trabalho_traces//454.calculix-104B.champsimtrace.xz: Unexpected end of input
*** Reached end of trace for Core: 0 Repeating trace: /scratch/vsgirelli/ChampSim/trabalho_traces//454.calculix-104B.champsimtrace.xz
xz: /scratch/vsgirelli/ChampSim/trabalho_traces//454.calculix-104B.champsimtrace.xz: Unexpected end of input
*** Reached end of trace for Core: 0 Repeating trace: /scratch/vsgirelli/ChampSim/trabalho_traces//454.calculix-104B.champsimtrace.xz
xz: /scratch/vsgirelli/ChampSim/trabalho_traces//454.calculix-104B.champsimtrace.xz: Unexpected end of input
*** Reached end of trace for Core: 0 Repeating trace: /scratch/vsgirelli/ChampSim/trabalho_traces//454.calculix-104B.champsimtrace.xz
xz: /scratch/vsgirelli/ChampSim/trabalho_traces//454.calculix-104B.champsimtrace.xz: Unexpected end of input
*** Reached end of trace for Core: 0 Repeating trace: /scratch/vsgirelli/ChampSim/trabalho_traces//454.calculix-104B.champsimtrace.xz
xz: /scratch/vsgirelli/ChampSim/trabalho_traces//454.calculix-104B.champsimtrace.xz: Unexpected end of input
*** Reached end of trace for Core: 0 Repeating trace: /scratch/vsgirelli/ChampSim/trabalho_traces//454.calculix-104B.champsimtrace.xz
xz: /scratch/vsgirelli/ChampSim/trabalho_traces//454.calculix-104B.champsimtrace.xz: Unexpected end of input
*** Reached end of trace for Core: 0 Repeating trace: /scratch/vsgirelli/ChampSim/trabalho_traces//454.calculix-104B.champsimtrace.xz
xz: /scratch/vsgirelli/ChampSim/trabalho_traces//454.calculix-104B.champsimtrace.xz: Unexpected end of input
*** Reached end of trace for Core: 0 Repeating trace: /scratch/vsgirelli/ChampSim/trabalho_traces//454.calculix-104B.champsimtrace.xz
Heartbeat CPU 0 instructions: 10000000 cycles: 4531636 heartbeat IPC: 2.20671 cumulative IPC: 1.92558 (Simulation time: 0 hr 0 min 24 sec) 
xz: /scratch/vsgirelli/ChampSim/trabalho_traces//454.calculix-104B.champsimtrace.xz: Unexpected end of input
*** Reached end of trace for Core: 0 Repeating trace: /scratch/vsgirelli/ChampSim/trabalho_traces//454.calculix-104B.champsimtrace.xz
xz: /scratch/vsgirelli/ChampSim/trabalho_traces//454.calculix-104B.champsimtrace.xz: Unexpected end of input
*** Reached end of trace for Core: 0 Repeating trace: /scratch/vsgirelli/ChampSim/trabalho_traces//454.calculix-104B.champsimtrace.xz
xz: /scratch/vsgirelli/ChampSim/trabalho_traces//454.calculix-104B.champsimtrace.xz: Unexpected end of input
*** Reached end of trace for Core: 0 Repeating trace: /scratch/vsgirelli/ChampSim/trabalho_traces//454.calculix-104B.champsimtrace.xz
xz: /scratch/vsgirelli/ChampSim/trabalho_traces//454.calculix-104B.champsimtrace.xz: Unexpected end of input
*** Reached end of trace for Core: 0 Repeating trace: /scratch/vsgirelli/ChampSim/trabalho_traces//454.calculix-104B.champsimtrace.xz
xz: /scratch/vsgirelli/ChampSim/trabalho_traces//454.calculix-104B.champsimtrace.xz: Unexpected end of input
*** Reached end of trace for Core: 0 Repeating trace: /scratch/vsgirelli/ChampSim/trabalho_traces//454.calculix-104B.champsimtrace.xz
xz: /scratch/vsgirelli/ChampSim/trabalho_traces//454.calculix-104B.champsimtrace.xz: Unexpected end of input
*** Reached end of trace for Core: 0 Repeating trace: /scratch/vsgirelli/ChampSim/trabalho_traces//454.calculix-104B.champsimtrace.xz
xz: /scratch/vsgirelli/ChampSim/trabalho_traces//454.calculix-104B.champsimtrace.xz: Unexpected end of input
*** Reached end of trace for Core: 0 Repeating trace: /scratch/vsgirelli/ChampSim/trabalho_traces//454.calculix-104B.champsimtrace.xz
xz: /scratch/vsgirelli/ChampSim/trabalho_traces//454.calculix-104B.champsimtrace.xz: Unexpected end of input
*** Reached end of trace for Core: 0 Repeating trace: /scratch/vsgirelli/ChampSim/trabalho_traces//454.calculix-104B.champsimtrace.xz
xz: /scratch/vsgirelli/ChampSim/trabalho_traces//454.calculix-104B.champsimtrace.xz: Unexpected end of input
*** Reached end of trace for Core: 0 Repeating trace: /scratch/vsgirelli/ChampSim/trabalho_traces//454.calculix-104B.champsimtrace.xz
xz: /scratch/vsgirelli/ChampSim/trabalho_traces//454.calculix-104B.champsimtrace.xz: Unexpected end of input
*** Reached end of trace for Core: 0 Repeating trace: /scratch/vsgirelli/ChampSim/trabalho_traces//454.calculix-104B.champsimtrace.xz
xz: /scratch/vsgirelli/ChampSim/trabalho_traces//454.calculix-104B.champsimtrace.xz: Unexpected end of input
*** Reached end of trace for Core: 0 Repeating trace: /scratch/vsgirelli/ChampSim/trabalho_traces//454.calculix-104B.champsimtrace.xz
xz: /scratch/vsgirelli/ChampSim/trabalho_traces//454.calculix-104B.champsimtrace.xz: Unexpected end of input
*** Reached end of trace for Core: 0 Repeating trace: /scratch/vsgirelli/ChampSim/trabalho_traces//454.calculix-104B.champsimtrace.xz
xz: /scratch/vsgirelli/ChampSim/trabalho_traces//454.calculix-104B.champsimtrace.xz: Unexpected end of input
*** Reached end of trace for Core: 0 Repeating trace: /scratch/vsgirelli/ChampSim/trabalho_traces//454.calculix-104B.champsimtrace.xz
xz: /scratch/vsgirelli/ChampSim/trabalho_traces//454.calculix-104B.champsimtrace.xz: Unexpected end of input
*** Reached end of trace for Core: 0 Repeating trace: /scratch/vsgirelli/ChampSim/trabalho_traces//454.calculix-104B.champsimtrace.xz
Heartbeat CPU 0 instructions: 20000002 cycles: 9722366 heartbeat IPC: 1.92651 cumulative IPC: 1.9262 (Simulation time: 0 hr 0 min 45 sec) 
xz: /scratch/vsgirelli/ChampSim/trabalho_traces//454.calculix-104B.champsimtrace.xz: Unexpected end of input
*** Reached end of trace for Core: 0 Repeating trace: /scratch/vsgirelli/ChampSim/trabalho_traces//454.calculix-104B.champsimtrace.xz
xz: /scratch/vsgirelli/ChampSim/trabalho_traces//454.calculix-104B.champsimtrace.xz: Unexpected end of input
*** Reached end of trace for Core: 0 Repeating trace: /scratch/vsgirelli/ChampSim/trabalho_traces//454.calculix-104B.champsimtrace.xz
xz: /scratch/vsgirelli/ChampSim/trabalho_traces//454.calculix-104B.champsimtrace.xz: Unexpected end of input
*** Reached end of trace for Core: 0 Repeating trace: /scratch/vsgirelli/ChampSim/trabalho_traces//454.calculix-104B.champsimtrace.xz
xz: /scratch/vsgirelli/ChampSim/trabalho_traces//454.calculix-104B.champsimtrace.xz: Unexpected end of input
*** Reached end of trace for Core: 0 Repeating trace: /scratch/vsgirelli/ChampSim/trabalho_traces//454.calculix-104B.champsimtrace.xz
xz: /scratch/vsgirelli/ChampSim/trabalho_traces//454.calculix-104B.champsimtrace.xz: Unexpected end of input
*** Reached end of trace for Core: 0 Repeating trace: /scratch/vsgirelli/ChampSim/trabalho_traces//454.calculix-104B.champsimtrace.xz
xz: /scratch/vsgirelli/ChampSim/trabalho_traces//454.calculix-104B.champsimtrace.xz: Unexpected end of input
*** Reached end of trace for Core: 0 Repeating trace: /scratch/vsgirelli/ChampSim/trabalho_traces//454.calculix-104B.champsimtrace.xz
xz: /scratch/vsgirelli/ChampSim/trabalho_traces//454.calculix-104B.champsimtrace.xz: Unexpected end of input
*** Reached end of trace for Core: 0 Repeating trace: /scratch/vsgirelli/ChampSim/trabalho_traces//454.calculix-104B.champsimtrace.xz
xz: /scratch/vsgirelli/ChampSim/trabalho_traces//454.calculix-104B.champsimtrace.xz: Unexpected end of input
*** Reached end of trace for Core: 0 Repeating trace: /scratch/vsgirelli/ChampSim/trabalho_traces//454.calculix-104B.champsimtrace.xz
xz: /scratch/vsgirelli/ChampSim/trabalho_traces//454.calculix-104B.champsimtrace.xz: Unexpected end of input
*** Reached end of trace for Core: 0 Repeating trace: /scratch/vsgirelli/ChampSim/trabalho_traces//454.calculix-104B.champsimtrace.xz
xz: /scratch/vsgirelli/ChampSim/trabalho_traces//454.calculix-104B.champsimtrace.xz: Unexpected end of input
*** Reached end of trace for Core: 0 Repeating trace: /scratch/vsgirelli/ChampSim/trabalho_traces//454.calculix-104B.champsimtrace.xz
xz: /scratch/vsgirelli/ChampSim/trabalho_traces//454.calculix-104B.champsimtrace.xz: Unexpected end of input
*** Reached end of trace for Core: 0 Repeating trace: /scratch/vsgirelli/ChampSim/trabalho_traces//454.calculix-104B.champsimtrace.xz
xz: /scratch/vsgirelli/ChampSim/trabalho_traces//454.calculix-104B.champsimtrace.xz: Unexpected end of input
*** Reached end of trace for Core: 0 Repeating trace: /scratch/vsgirelli/ChampSim/trabalho_traces//454.calculix-104B.champsimtrace.xz
xz: /scratch/vsgirelli/ChampSim/trabalho_traces//454.calculix-104B.champsimtrace.xz: Unexpected end of input
*** Reached end of trace for Core: 0 Repeating trace: /scratch/vsgirelli/ChampSim/trabalho_traces//454.calculix-104B.champsimtrace.xz
xz: /scratch/vsgirelli/ChampSim/trabalho_traces//454.calculix-104B.champsimtrace.xz: Unexpected end of input
*** Reached end of trace for Core: 0 Repeating trace: /scratch/vsgirelli/ChampSim/trabalho_traces//454.calculix-104B.champsimtrace.xz
Heartbeat CPU 0 instructions: 30000000 cycles: 14913715 heartbeat IPC: 1.92628 cumulative IPC: 1.92623 (Simulation time: 0 hr 1 min 5 sec) 
xz: /scratch/vsgirelli/ChampSim/trabalho_traces//454.calculix-104B.champsimtrace.xz: Unexpected end of input
*** Reached end of trace for Core: 0 Repeating trace: /scratch/vsgirelli/ChampSim/trabalho_traces//454.calculix-104B.champsimtrace.xz
xz: /scratch/vsgirelli/ChampSim/trabalho_traces//454.calculix-104B.champsimtrace.xz: Unexpected end of input
*** Reached end of trace for Core: 0 Repeating trace: /scratch/vsgirelli/ChampSim/trabalho_traces//454.calculix-104B.champsimtrace.xz
xz: /scratch/vsgirelli/ChampSim/trabalho_traces//454.calculix-104B.champsimtrace.xz: Unexpected end of input
*** Reached end of trace for Core: 0 Repeating trace: /scratch/vsgirelli/ChampSim/trabalho_traces//454.calculix-104B.champsimtrace.xz
xz: /scratch/vsgirelli/ChampSim/trabalho_traces//454.calculix-104B.champsimtrace.xz: Unexpected end of input
*** Reached end of trace for Core: 0 Repeating trace: /scratch/vsgirelli/ChampSim/trabalho_traces//454.calculix-104B.champsimtrace.xz
xz: /scratch/vsgirelli/ChampSim/trabalho_traces//454.calculix-104B.champsimtrace.xz: Unexpected end of input
*** Reached end of trace for Core: 0 Repeating trace: /scratch/vsgirelli/ChampSim/trabalho_traces//454.calculix-104B.champsimtrace.xz
xz: /scratch/vsgirelli/ChampSim/trabalho_traces//454.calculix-104B.champsimtrace.xz: Unexpected end of input
*** Reached end of trace for Core: 0 Repeating trace: /scratch/vsgirelli/ChampSim/trabalho_traces//454.calculix-104B.champsimtrace.xz
xz: /scratch/vsgirelli/ChampSim/trabalho_traces//454.calculix-104B.champsimtrace.xz: Unexpected end of input
*** Reached end of trace for Core: 0 Repeating trace: /scratch/vsgirelli/ChampSim/trabalho_traces//454.calculix-104B.champsimtrace.xz
xz: /scratch/vsgirelli/ChampSim/trabalho_traces//454.calculix-104B.champsimtrace.xz: Unexpected end of input
*** Reached end of trace for Core: 0 Repeating trace: /scratch/vsgirelli/ChampSim/trabalho_traces//454.calculix-104B.champsimtrace.xz
xz: /scratch/vsgirelli/ChampSim/trabalho_traces//454.calculix-104B.champsimtrace.xz: Unexpected end of input
*** Reached end of trace for Core: 0 Repeating trace: /scratch/vsgirelli/ChampSim/trabalho_traces//454.calculix-104B.champsimtrace.xz
xz: /scratch/vsgirelli/ChampSim/trabalho_traces//454.calculix-104B.champsimtrace.xz: Unexpected end of input
*** Reached end of trace for Core: 0 Repeating trace: /scratch/vsgirelli/ChampSim/trabalho_traces//454.calculix-104B.champsimtrace.xz
xz: /scratch/vsgirelli/ChampSim/trabalho_traces//454.calculix-104B.champsimtrace.xz: Unexpected end of input
*** Reached end of trace for Core: 0 Repeating trace: /scratch/vsgirelli/ChampSim/trabalho_traces//454.calculix-104B.champsimtrace.xz
xz: /scratch/vsgirelli/ChampSim/trabalho_traces//454.calculix-104B.champsimtrace.xz: Unexpected end of input
*** Reached end of trace for Core: 0 Repeating trace: /scratch/vsgirelli/ChampSim/trabalho_traces//454.calculix-104B.champsimtrace.xz
xz: /scratch/vsgirelli/ChampSim/trabalho_traces//454.calculix-104B.champsimtrace.xz: Unexpected end of input
*** Reached end of trace for Core: 0 Repeating trace: /scratch/vsgirelli/ChampSim/trabalho_traces//454.calculix-104B.champsimtrace.xz
xz: /scratch/vsgirelli/ChampSim/trabalho_traces//454.calculix-104B.champsimtrace.xz: Unexpected end of input
*** Reached end of trace for Core: 0 Repeating trace: /scratch/vsgirelli/ChampSim/trabalho_traces//454.calculix-104B.champsimtrace.xz
Heartbeat CPU 0 instructions: 40000001 cycles: 20104519 heartbeat IPC: 1.92648 cumulative IPC: 1.9263 (Simulation time: 0 hr 1 min 26 sec) 
xz: /scratch/vsgirelli/ChampSim/trabalho_traces//454.calculix-104B.champsimtrace.xz: Unexpected end of input
*** Reached end of trace for Core: 0 Repeating trace: /scratch/vsgirelli/ChampSim/trabalho_traces//454.calculix-104B.champsimtrace.xz
xz: /scratch/vsgirelli/ChampSim/trabalho_traces//454.calculix-104B.champsimtrace.xz: Unexpected end of input
*** Reached end of trace for Core: 0 Repeating trace: /scratch/vsgirelli/ChampSim/trabalho_traces//454.calculix-104B.champsimtrace.xz
xz: /scratch/vsgirelli/ChampSim/trabalho_traces//454.calculix-104B.champsimtrace.xz: Unexpected end of input
*** Reached end of trace for Core: 0 Repeating trace: /scratch/vsgirelli/ChampSim/trabalho_traces//454.calculix-104B.champsimtrace.xz
xz: /scratch/vsgirelli/ChampSim/trabalho_traces//454.calculix-104B.champsimtrace.xz: Unexpected end of input
*** Reached end of trace for Core: 0 Repeating trace: /scratch/vsgirelli/ChampSim/trabalho_traces//454.calculix-104B.champsimtrace.xz
xz: /scratch/vsgirelli/ChampSim/trabalho_traces//454.calculix-104B.champsimtrace.xz: Unexpected end of input
*** Reached end of trace for Core: 0 Repeating trace: /scratch/vsgirelli/ChampSim/trabalho_traces//454.calculix-104B.champsimtrace.xz
xz: /scratch/vsgirelli/ChampSim/trabalho_traces//454.calculix-104B.champsimtrace.xz: Unexpected end of input
*** Reached end of trace for Core: 0 Repeating trace: /scratch/vsgirelli/ChampSim/trabalho_traces//454.calculix-104B.champsimtrace.xz
xz: /scratch/vsgirelli/ChampSim/trabalho_traces//454.calculix-104B.champsimtrace.xz: Unexpected end of input
*** Reached end of trace for Core: 0 Repeating trace: /scratch/vsgirelli/ChampSim/trabalho_traces//454.calculix-104B.champsimtrace.xz
xz: /scratch/vsgirelli/ChampSim/trabalho_traces//454.calculix-104B.champsimtrace.xz: Unexpected end of input
*** Reached end of trace for Core: 0 Repeating trace: /scratch/vsgirelli/ChampSim/trabalho_traces//454.calculix-104B.champsimtrace.xz
xz: /scratch/vsgirelli/ChampSim/trabalho_traces//454.calculix-104B.champsimtrace.xz: Unexpected end of input
*** Reached end of trace for Core: 0 Repeating trace: /scratch/vsgirelli/ChampSim/trabalho_traces//454.calculix-104B.champsimtrace.xz
xz: /scratch/vsgirelli/ChampSim/trabalho_traces//454.calculix-104B.champsimtrace.xz: Unexpected end of input
*** Reached end of trace for Core: 0 Repeating trace: /scratch/vsgirelli/ChampSim/trabalho_traces//454.calculix-104B.champsimtrace.xz
xz: /scratch/vsgirelli/ChampSim/trabalho_traces//454.calculix-104B.champsimtrace.xz: Unexpected end of input
*** Reached end of trace for Core: 0 Repeating trace: /scratch/vsgirelli/ChampSim/trabalho_traces//454.calculix-104B.champsimtrace.xz
xz: /scratch/vsgirelli/ChampSim/trabalho_traces//454.calculix-104B.champsimtrace.xz: Unexpected end of input
*** Reached end of trace for Core: 0 Repeating trace: /scratch/vsgirelli/ChampSim/trabalho_traces//454.calculix-104B.champsimtrace.xz
xz: /scratch/vsgirelli/ChampSim/trabalho_traces//454.calculix-104B.champsimtrace.xz: Unexpected end of input
*** Reached end of trace for Core: 0 Repeating trace: /scratch/vsgirelli/ChampSim/trabalho_traces//454.calculix-104B.champsimtrace.xz
xz: /scratch/vsgirelli/ChampSim/trabalho_traces//454.calculix-104B.champsimtrace.xz: Unexpected end of input
*** Reached end of trace for Core: 0 Repeating trace: /scratch/vsgirelli/ChampSim/trabalho_traces//454.calculix-104B.champsimtrace.xz
Heartbeat CPU 0 instructions: 50000001 cycles: 25295713 heartbeat IPC: 1.92634 cumulative IPC: 1.92631 (Simulation time: 0 hr 1 min 46 sec) 
xz: /scratch/vsgirelli/ChampSim/trabalho_traces//454.calculix-104B.champsimtrace.xz: Unexpected end of input
*** Reached end of trace for Core: 0 Repeating trace: /scratch/vsgirelli/ChampSim/trabalho_traces//454.calculix-104B.champsimtrace.xz
xz: /scratch/vsgirelli/ChampSim/trabalho_traces//454.calculix-104B.champsimtrace.xz: Unexpected end of input
*** Reached end of trace for Core: 0 Repeating trace: /scratch/vsgirelli/ChampSim/trabalho_traces//454.calculix-104B.champsimtrace.xz
xz: /scratch/vsgirelli/ChampSim/trabalho_traces//454.calculix-104B.champsimtrace.xz: Unexpected end of input
*** Reached end of trace for Core: 0 Repeating trace: /scratch/vsgirelli/ChampSim/trabalho_traces//454.calculix-104B.champsimtrace.xz
xz: /scratch/vsgirelli/ChampSim/trabalho_traces//454.calculix-104B.champsimtrace.xz: Unexpected end of input
*** Reached end of trace for Core: 0 Repeating trace: /scratch/vsgirelli/ChampSim/trabalho_traces//454.calculix-104B.champsimtrace.xz
xz: /scratch/vsgirelli/ChampSim/trabalho_traces//454.calculix-104B.champsimtrace.xz: Unexpected end of input
*** Reached end of trace for Core: 0 Repeating trace: /scratch/vsgirelli/ChampSim/trabalho_traces//454.calculix-104B.champsimtrace.xz
xz: /scratch/vsgirelli/ChampSim/trabalho_traces//454.calculix-104B.champsimtrace.xz: Unexpected end of input
*** Reached end of trace for Core: 0 Repeating trace: /scratch/vsgirelli/ChampSim/trabalho_traces//454.calculix-104B.champsimtrace.xz
xz: /scratch/vsgirelli/ChampSim/trabalho_traces//454.calculix-104B.champsimtrace.xz: Unexpected end of input
*** Reached end of trace for Core: 0 Repeating trace: /scratch/vsgirelli/ChampSim/trabalho_traces//454.calculix-104B.champsimtrace.xz
xz: /scratch/vsgirelli/ChampSim/trabalho_traces//454.calculix-104B.champsimtrace.xz: Unexpected end of input
*** Reached end of trace for Core: 0 Repeating trace: /scratch/vsgirelli/ChampSim/trabalho_traces//454.calculix-104B.champsimtrace.xz
xz: /scratch/vsgirelli/ChampSim/trabalho_traces//454.calculix-104B.champsimtrace.xz: Unexpected end of input
*** Reached end of trace for Core: 0 Repeating trace: /scratch/vsgirelli/ChampSim/trabalho_traces//454.calculix-104B.champsimtrace.xz
xz: /scratch/vsgirelli/ChampSim/trabalho_traces//454.calculix-104B.champsimtrace.xz: Unexpected end of input
*** Reached end of trace for Core: 0 Repeating trace: /scratch/vsgirelli/ChampSim/trabalho_traces//454.calculix-104B.champsimtrace.xz
xz: /scratch/vsgirelli/ChampSim/trabalho_traces//454.calculix-104B.champsimtrace.xz: Unexpected end of input
*** Reached end of trace for Core: 0 Repeating trace: /scratch/vsgirelli/ChampSim/trabalho_traces//454.calculix-104B.champsimtrace.xz
xz: /scratch/vsgirelli/ChampSim/trabalho_traces//454.calculix-104B.champsimtrace.xz: Unexpected end of input
*** Reached end of trace for Core: 0 Repeating trace: /scratch/vsgirelli/ChampSim/trabalho_traces//454.calculix-104B.champsimtrace.xz
xz: /scratch/vsgirelli/ChampSim/trabalho_traces//454.calculix-104B.champsimtrace.xz: Unexpected end of input
*** Reached end of trace for Core: 0 Repeating trace: /scratch/vsgirelli/ChampSim/trabalho_traces//454.calculix-104B.champsimtrace.xz
xz: /scratch/vsgirelli/ChampSim/trabalho_traces//454.calculix-104B.champsimtrace.xz: Unexpected end of input
*** Reached end of trace for Core: 0 Repeating trace: /scratch/vsgirelli/ChampSim/trabalho_traces//454.calculix-104B.champsimtrace.xz
xz: /scratch/vsgirelli/ChampSim/trabalho_traces//454.calculix-104B.champsimtrace.xz: Unexpected end of input
*** Reached end of trace for Core: 0 Repeating trace: /scratch/vsgirelli/ChampSim/trabalho_traces//454.calculix-104B.champsimtrace.xz
Heartbeat CPU 0 instructions: 60000001 cycles: 30486700 heartbeat IPC: 1.92642 cumulative IPC: 1.92633 (Simulation time: 0 hr 2 min 7 sec) 
xz: /scratch/vsgirelli/ChampSim/trabalho_traces//454.calculix-104B.champsimtrace.xz: Unexpected end of input
*** Reached end of trace for Core: 0 Repeating trace: /scratch/vsgirelli/ChampSim/trabalho_traces//454.calculix-104B.champsimtrace.xz
xz: /scratch/vsgirelli/ChampSim/trabalho_traces//454.calculix-104B.champsimtrace.xz: Unexpected end of input
*** Reached end of trace for Core: 0 Repeating trace: /scratch/vsgirelli/ChampSim/trabalho_traces//454.calculix-104B.champsimtrace.xz
xz: /scratch/vsgirelli/ChampSim/trabalho_traces//454.calculix-104B.champsimtrace.xz: Unexpected end of input
*** Reached end of trace for Core: 0 Repeating trace: /scratch/vsgirelli/ChampSim/trabalho_traces//454.calculix-104B.champsimtrace.xz
xz: /scratch/vsgirelli/ChampSim/trabalho_traces//454.calculix-104B.champsimtrace.xz: Unexpected end of input
*** Reached end of trace for Core: 0 Repeating trace: /scratch/vsgirelli/ChampSim/trabalho_traces//454.calculix-104B.champsimtrace.xz
xz: /scratch/vsgirelli/ChampSim/trabalho_traces//454.calculix-104B.champsimtrace.xz: Unexpected end of input
*** Reached end of trace for Core: 0 Repeating trace: /scratch/vsgirelli/ChampSim/trabalho_traces//454.calculix-104B.champsimtrace.xz
xz: /scratch/vsgirelli/ChampSim/trabalho_traces//454.calculix-104B.champsimtrace.xz: Unexpected end of input
*** Reached end of trace for Core: 0 Repeating trace: /scratch/vsgirelli/ChampSim/trabalho_traces//454.calculix-104B.champsimtrace.xz
xz: /scratch/vsgirelli/ChampSim/trabalho_traces//454.calculix-104B.champsimtrace.xz: Unexpected end of input
*** Reached end of trace for Core: 0 Repeating trace: /scratch/vsgirelli/ChampSim/trabalho_traces//454.calculix-104B.champsimtrace.xz
xz: /scratch/vsgirelli/ChampSim/trabalho_traces//454.calculix-104B.champsimtrace.xz: Unexpected end of input
*** Reached end of trace for Core: 0 Repeating trace: /scratch/vsgirelli/ChampSim/trabalho_traces//454.calculix-104B.champsimtrace.xz
xz: /scratch/vsgirelli/ChampSim/trabalho_traces//454.calculix-104B.champsimtrace.xz: Unexpected end of input
*** Reached end of trace for Core: 0 Repeating trace: /scratch/vsgirelli/ChampSim/trabalho_traces//454.calculix-104B.champsimtrace.xz
xz: /scratch/vsgirelli/ChampSim/trabalho_traces//454.calculix-104B.champsimtrace.xz: Unexpected end of input
*** Reached end of trace for Core: 0 Repeating trace: /scratch/vsgirelli/ChampSim/trabalho_traces//454.calculix-104B.champsimtrace.xz
xz: /scratch/vsgirelli/ChampSim/trabalho_traces//454.calculix-104B.champsimtrace.xz: Unexpected end of input
*** Reached end of trace for Core: 0 Repeating trace: /scratch/vsgirelli/ChampSim/trabalho_traces//454.calculix-104B.champsimtrace.xz
xz: /scratch/vsgirelli/ChampSim/trabalho_traces//454.calculix-104B.champsimtrace.xz: Unexpected end of input
*** Reached end of trace for Core: 0 Repeating trace: /scratch/vsgirelli/ChampSim/trabalho_traces//454.calculix-104B.champsimtrace.xz
xz: /scratch/vsgirelli/ChampSim/trabalho_traces//454.calculix-104B.champsimtrace.xz: Unexpected end of input
*** Reached end of trace for Core: 0 Repeating trace: /scratch/vsgirelli/ChampSim/trabalho_traces//454.calculix-104B.champsimtrace.xz
xz: /scratch/vsgirelli/ChampSim/trabalho_traces//454.calculix-104B.champsimtrace.xz: Unexpected end of input
*** Reached end of trace for Core: 0 Repeating trace: /scratch/vsgirelli/ChampSim/trabalho_traces//454.calculix-104B.champsimtrace.xz
Heartbeat CPU 0 instructions: 70000000 cycles: 35677600 heartbeat IPC: 1.92645 cumulative IPC: 1.92635 (Simulation time: 0 hr 2 min 27 sec) 
xz: /scratch/vsgirelli/ChampSim/trabalho_traces//454.calculix-104B.champsimtrace.xz: Unexpected end of input
*** Reached end of trace for Core: 0 Repeating trace: /scratch/vsgirelli/ChampSim/trabalho_traces//454.calculix-104B.champsimtrace.xz
xz: /scratch/vsgirelli/ChampSim/trabalho_traces//454.calculix-104B.champsimtrace.xz: Unexpected end of input
*** Reached end of trace for Core: 0 Repeating trace: /scratch/vsgirelli/ChampSim/trabalho_traces//454.calculix-104B.champsimtrace.xz
xz: /scratch/vsgirelli/ChampSim/trabalho_traces//454.calculix-104B.champsimtrace.xz: Unexpected end of input
*** Reached end of trace for Core: 0 Repeating trace: /scratch/vsgirelli/ChampSim/trabalho_traces//454.calculix-104B.champsimtrace.xz
xz: /scratch/vsgirelli/ChampSim/trabalho_traces//454.calculix-104B.champsimtrace.xz: Unexpected end of input
*** Reached end of trace for Core: 0 Repeating trace: /scratch/vsgirelli/ChampSim/trabalho_traces//454.calculix-104B.champsimtrace.xz
xz: /scratch/vsgirelli/ChampSim/trabalho_traces//454.calculix-104B.champsimtrace.xz: Unexpected end of input
*** Reached end of trace for Core: 0 Repeating trace: /scratch/vsgirelli/ChampSim/trabalho_traces//454.calculix-104B.champsimtrace.xz
xz: /scratch/vsgirelli/ChampSim/trabalho_traces//454.calculix-104B.champsimtrace.xz: Unexpected end of input
*** Reached end of trace for Core: 0 Repeating trace: /scratch/vsgirelli/ChampSim/trabalho_traces//454.calculix-104B.champsimtrace.xz
xz: /scratch/vsgirelli/ChampSim/trabalho_traces//454.calculix-104B.champsimtrace.xz: Unexpected end of input
*** Reached end of trace for Core: 0 Repeating trace: /scratch/vsgirelli/ChampSim/trabalho_traces//454.calculix-104B.champsimtrace.xz
xz: /scratch/vsgirelli/ChampSim/trabalho_traces//454.calculix-104B.champsimtrace.xz: Unexpected end of input
*** Reached end of trace for Core: 0 Repeating trace: /scratch/vsgirelli/ChampSim/trabalho_traces//454.calculix-104B.champsimtrace.xz
xz: /scratch/vsgirelli/ChampSim/trabalho_traces//454.calculix-104B.champsimtrace.xz: Unexpected end of input
*** Reached end of trace for Core: 0 Repeating trace: /scratch/vsgirelli/ChampSim/trabalho_traces//454.calculix-104B.champsimtrace.xz
xz: /scratch/vsgirelli/ChampSim/trabalho_traces//454.calculix-104B.champsimtrace.xz: Unexpected end of input
*** Reached end of trace for Core: 0 Repeating trace: /scratch/vsgirelli/ChampSim/trabalho_traces//454.calculix-104B.champsimtrace.xz
xz: /scratch/vsgirelli/ChampSim/trabalho_traces//454.calculix-104B.champsimtrace.xz: Unexpected end of input
*** Reached end of trace for Core: 0 Repeating trace: /scratch/vsgirelli/ChampSim/trabalho_traces//454.calculix-104B.champsimtrace.xz
xz: /scratch/vsgirelli/ChampSim/trabalho_traces//454.calculix-104B.champsimtrace.xz: Unexpected end of input
*** Reached end of trace for Core: 0 Repeating trace: /scratch/vsgirelli/ChampSim/trabalho_traces//454.calculix-104B.champsimtrace.xz
xz: /scratch/vsgirelli/ChampSim/trabalho_traces//454.calculix-104B.champsimtrace.xz: Unexpected end of input
*** Reached end of trace for Core: 0 Repeating trace: /scratch/vsgirelli/ChampSim/trabalho_traces//454.calculix-104B.champsimtrace.xz
xz: /scratch/vsgirelli/ChampSim/trabalho_traces//454.calculix-104B.champsimtrace.xz: Unexpected end of input
*** Reached end of trace for Core: 0 Repeating trace: /scratch/vsgirelli/ChampSim/trabalho_traces//454.calculix-104B.champsimtrace.xz
Heartbeat CPU 0 instructions: 80000001 cycles: 40868946 heartbeat IPC: 1.92628 cumulative IPC: 1.92634 (Simulation time: 0 hr 2 min 47 sec) 
xz: /scratch/vsgirelli/ChampSim/trabalho_traces//454.calculix-104B.champsimtrace.xz: Unexpected end of input
*** Reached end of trace for Core: 0 Repeating trace: /scratch/vsgirelli/ChampSim/trabalho_traces//454.calculix-104B.champsimtrace.xz
xz: /scratch/vsgirelli/ChampSim/trabalho_traces//454.calculix-104B.champsimtrace.xz: Unexpected end of input
*** Reached end of trace for Core: 0 Repeating trace: /scratch/vsgirelli/ChampSim/trabalho_traces//454.calculix-104B.champsimtrace.xz
xz: /scratch/vsgirelli/ChampSim/trabalho_traces//454.calculix-104B.champsimtrace.xz: Unexpected end of input
*** Reached end of trace for Core: 0 Repeating trace: /scratch/vsgirelli/ChampSim/trabalho_traces//454.calculix-104B.champsimtrace.xz
xz: /scratch/vsgirelli/ChampSim/trabalho_traces//454.calculix-104B.champsimtrace.xz: Unexpected end of input
*** Reached end of trace for Core: 0 Repeating trace: /scratch/vsgirelli/ChampSim/trabalho_traces//454.calculix-104B.champsimtrace.xz
xz: /scratch/vsgirelli/ChampSim/trabalho_traces//454.calculix-104B.champsimtrace.xz: Unexpected end of input
*** Reached end of trace for Core: 0 Repeating trace: /scratch/vsgirelli/ChampSim/trabalho_traces//454.calculix-104B.champsimtrace.xz
xz: /scratch/vsgirelli/ChampSim/trabalho_traces//454.calculix-104B.champsimtrace.xz: Unexpected end of input
*** Reached end of trace for Core: 0 Repeating trace: /scratch/vsgirelli/ChampSim/trabalho_traces//454.calculix-104B.champsimtrace.xz
xz: /scratch/vsgirelli/ChampSim/trabalho_traces//454.calculix-104B.champsimtrace.xz: Unexpected end of input
*** Reached end of trace for Core: 0 Repeating trace: /scratch/vsgirelli/ChampSim/trabalho_traces//454.calculix-104B.champsimtrace.xz
xz: /scratch/vsgirelli/ChampSim/trabalho_traces//454.calculix-104B.champsimtrace.xz: Unexpected end of input
*** Reached end of trace for Core: 0 Repeating trace: /scratch/vsgirelli/ChampSim/trabalho_traces//454.calculix-104B.champsimtrace.xz
xz: /scratch/vsgirelli/ChampSim/trabalho_traces//454.calculix-104B.champsimtrace.xz: Unexpected end of input
*** Reached end of trace for Core: 0 Repeating trace: /scratch/vsgirelli/ChampSim/trabalho_traces//454.calculix-104B.champsimtrace.xz
xz: /scratch/vsgirelli/ChampSim/trabalho_traces//454.calculix-104B.champsimtrace.xz: Unexpected end of input
*** Reached end of trace for Core: 0 Repeating trace: /scratch/vsgirelli/ChampSim/trabalho_traces//454.calculix-104B.champsimtrace.xz
xz: /scratch/vsgirelli/ChampSim/trabalho_traces//454.calculix-104B.champsimtrace.xz: Unexpected end of input
*** Reached end of trace for Core: 0 Repeating trace: /scratch/vsgirelli/ChampSim/trabalho_traces//454.calculix-104B.champsimtrace.xz
xz: /scratch/vsgirelli/ChampSim/trabalho_traces//454.calculix-104B.champsimtrace.xz: Unexpected end of input
*** Reached end of trace for Core: 0 Repeating trace: /scratch/vsgirelli/ChampSim/trabalho_traces//454.calculix-104B.champsimtrace.xz
xz: /scratch/vsgirelli/ChampSim/trabalho_traces//454.calculix-104B.champsimtrace.xz: Unexpected end of input
*** Reached end of trace for Core: 0 Repeating trace: /scratch/vsgirelli/ChampSim/trabalho_traces//454.calculix-104B.champsimtrace.xz
xz: /scratch/vsgirelli/ChampSim/trabalho_traces//454.calculix-104B.champsimtrace.xz: Unexpected end of input
*** Reached end of trace for Core: 0 Repeating trace: /scratch/vsgirelli/ChampSim/trabalho_traces//454.calculix-104B.champsimtrace.xz
Heartbeat CPU 0 instructions: 90000000 cycles: 46059638 heartbeat IPC: 1.92653 cumulative IPC: 1.92636 (Simulation time: 0 hr 3 min 8 sec) 
xz: /scratch/vsgirelli/ChampSim/trabalho_traces//454.calculix-104B.champsimtrace.xz: Unexpected end of input
*** Reached end of trace for Core: 0 Repeating trace: /scratch/vsgirelli/ChampSim/trabalho_traces//454.calculix-104B.champsimtrace.xz
xz: /scratch/vsgirelli/ChampSim/trabalho_traces//454.calculix-104B.champsimtrace.xz: Unexpected end of input
*** Reached end of trace for Core: 0 Repeating trace: /scratch/vsgirelli/ChampSim/trabalho_traces//454.calculix-104B.champsimtrace.xz
xz: /scratch/vsgirelli/ChampSim/trabalho_traces//454.calculix-104B.champsimtrace.xz: Unexpected end of input
*** Reached end of trace for Core: 0 Repeating trace: /scratch/vsgirelli/ChampSim/trabalho_traces//454.calculix-104B.champsimtrace.xz
xz: /scratch/vsgirelli/ChampSim/trabalho_traces//454.calculix-104B.champsimtrace.xz: Unexpected end of input
*** Reached end of trace for Core: 0 Repeating trace: /scratch/vsgirelli/ChampSim/trabalho_traces//454.calculix-104B.champsimtrace.xz
xz: /scratch/vsgirelli/ChampSim/trabalho_traces//454.calculix-104B.champsimtrace.xz: Unexpected end of input
*** Reached end of trace for Core: 0 Repeating trace: /scratch/vsgirelli/ChampSim/trabalho_traces//454.calculix-104B.champsimtrace.xz
xz: /scratch/vsgirelli/ChampSim/trabalho_traces//454.calculix-104B.champsimtrace.xz: Unexpected end of input
*** Reached end of trace for Core: 0 Repeating trace: /scratch/vsgirelli/ChampSim/trabalho_traces//454.calculix-104B.champsimtrace.xz
xz: /scratch/vsgirelli/ChampSim/trabalho_traces//454.calculix-104B.champsimtrace.xz: Unexpected end of input
*** Reached end of trace for Core: 0 Repeating trace: /scratch/vsgirelli/ChampSim/trabalho_traces//454.calculix-104B.champsimtrace.xz
xz: /scratch/vsgirelli/ChampSim/trabalho_traces//454.calculix-104B.champsimtrace.xz: Unexpected end of input
*** Reached end of trace for Core: 0 Repeating trace: /scratch/vsgirelli/ChampSim/trabalho_traces//454.calculix-104B.champsimtrace.xz
xz: /scratch/vsgirelli/ChampSim/trabalho_traces//454.calculix-104B.champsimtrace.xz: Unexpected end of input
*** Reached end of trace for Core: 0 Repeating trace: /scratch/vsgirelli/ChampSim/trabalho_traces//454.calculix-104B.champsimtrace.xz
xz: /scratch/vsgirelli/ChampSim/trabalho_traces//454.calculix-104B.champsimtrace.xz: Unexpected end of input
*** Reached end of trace for Core: 0 Repeating trace: /scratch/vsgirelli/ChampSim/trabalho_traces//454.calculix-104B.champsimtrace.xz
xz: /scratch/vsgirelli/ChampSim/trabalho_traces//454.calculix-104B.champsimtrace.xz: Unexpected end of input
*** Reached end of trace for Core: 0 Repeating trace: /scratch/vsgirelli/ChampSim/trabalho_traces//454.calculix-104B.champsimtrace.xz
xz: /scratch/vsgirelli/ChampSim/trabalho_traces//454.calculix-104B.champsimtrace.xz: Unexpected end of input
*** Reached end of trace for Core: 0 Repeating trace: /scratch/vsgirelli/ChampSim/trabalho_traces//454.calculix-104B.champsimtrace.xz
xz: /scratch/vsgirelli/ChampSim/trabalho_traces//454.calculix-104B.champsimtrace.xz: Unexpected end of input
*** Reached end of trace for Core: 0 Repeating trace: /scratch/vsgirelli/ChampSim/trabalho_traces//454.calculix-104B.champsimtrace.xz
xz: /scratch/vsgirelli/ChampSim/trabalho_traces//454.calculix-104B.champsimtrace.xz: Unexpected end of input
*** Reached end of trace for Core: 0 Repeating trace: /scratch/vsgirelli/ChampSim/trabalho_traces//454.calculix-104B.champsimtrace.xz
Heartbeat CPU 0 instructions: 100000000 cycles: 51250988 heartbeat IPC: 1.92628 cumulative IPC: 1.92635 (Simulation time: 0 hr 3 min 28 sec) 
xz: /scratch/vsgirelli/ChampSim/trabalho_traces//454.calculix-104B.champsimtrace.xz: Unexpected end of input
*** Reached end of trace for Core: 0 Repeating trace: /scratch/vsgirelli/ChampSim/trabalho_traces//454.calculix-104B.champsimtrace.xz
xz: /scratch/vsgirelli/ChampSim/trabalho_traces//454.calculix-104B.champsimtrace.xz: Unexpected end of input
*** Reached end of trace for Core: 0 Repeating trace: /scratch/vsgirelli/ChampSim/trabalho_traces//454.calculix-104B.champsimtrace.xz
xz: /scratch/vsgirelli/ChampSim/trabalho_traces//454.calculix-104B.champsimtrace.xz: Unexpected end of input
*** Reached end of trace for Core: 0 Repeating trace: /scratch/vsgirelli/ChampSim/trabalho_traces//454.calculix-104B.champsimtrace.xz
xz: /scratch/vsgirelli/ChampSim/trabalho_traces//454.calculix-104B.champsimtrace.xz: Unexpected end of input
*** Reached end of trace for Core: 0 Repeating trace: /scratch/vsgirelli/ChampSim/trabalho_traces//454.calculix-104B.champsimtrace.xz
xz: /scratch/vsgirelli/ChampSim/trabalho_traces//454.calculix-104B.champsimtrace.xz: Unexpected end of input
*** Reached end of trace for Core: 0 Repeating trace: /scratch/vsgirelli/ChampSim/trabalho_traces//454.calculix-104B.champsimtrace.xz
xz: /scratch/vsgirelli/ChampSim/trabalho_traces//454.calculix-104B.champsimtrace.xz: Unexpected end of input
*** Reached end of trace for Core: 0 Repeating trace: /scratch/vsgirelli/ChampSim/trabalho_traces//454.calculix-104B.champsimtrace.xz
xz: /scratch/vsgirelli/ChampSim/trabalho_traces//454.calculix-104B.champsimtrace.xz: Unexpected end of input
*** Reached end of trace for Core: 0 Repeating trace: /scratch/vsgirelli/ChampSim/trabalho_traces//454.calculix-104B.champsimtrace.xz
xz: /scratch/vsgirelli/ChampSim/trabalho_traces//454.calculix-104B.champsimtrace.xz: Unexpected end of input
*** Reached end of trace for Core: 0 Repeating trace: /scratch/vsgirelli/ChampSim/trabalho_traces//454.calculix-104B.champsimtrace.xz
xz: /scratch/vsgirelli/ChampSim/trabalho_traces//454.calculix-104B.champsimtrace.xz: Unexpected end of input
*** Reached end of trace for Core: 0 Repeating trace: /scratch/vsgirelli/ChampSim/trabalho_traces//454.calculix-104B.champsimtrace.xz
xz: /scratch/vsgirelli/ChampSim/trabalho_traces//454.calculix-104B.champsimtrace.xz: Unexpected end of input
*** Reached end of trace for Core: 0 Repeating trace: /scratch/vsgirelli/ChampSim/trabalho_traces//454.calculix-104B.champsimtrace.xz
xz: /scratch/vsgirelli/ChampSim/trabalho_traces//454.calculix-104B.champsimtrace.xz: Unexpected end of input
*** Reached end of trace for Core: 0 Repeating trace: /scratch/vsgirelli/ChampSim/trabalho_traces//454.calculix-104B.champsimtrace.xz
xz: /scratch/vsgirelli/ChampSim/trabalho_traces//454.calculix-104B.champsimtrace.xz: Unexpected end of input
*** Reached end of trace for Core: 0 Repeating trace: /scratch/vsgirelli/ChampSim/trabalho_traces//454.calculix-104B.champsimtrace.xz
xz: /scratch/vsgirelli/ChampSim/trabalho_traces//454.calculix-104B.champsimtrace.xz: Unexpected end of input
*** Reached end of trace for Core: 0 Repeating trace: /scratch/vsgirelli/ChampSim/trabalho_traces//454.calculix-104B.champsimtrace.xz
xz: /scratch/vsgirelli/ChampSim/trabalho_traces//454.calculix-104B.champsimtrace.xz: Unexpected end of input
*** Reached end of trace for Core: 0 Repeating trace: /scratch/vsgirelli/ChampSim/trabalho_traces//454.calculix-104B.champsimtrace.xz
Heartbeat CPU 0 instructions: 110000000 cycles: 56441863 heartbeat IPC: 1.92646 cumulative IPC: 1.92636 (Simulation time: 0 hr 3 min 49 sec) 
xz: /scratch/vsgirelli/ChampSim/trabalho_traces//454.calculix-104B.champsimtrace.xz: Unexpected end of input
*** Reached end of trace for Core: 0 Repeating trace: /scratch/vsgirelli/ChampSim/trabalho_traces//454.calculix-104B.champsimtrace.xz
xz: /scratch/vsgirelli/ChampSim/trabalho_traces//454.calculix-104B.champsimtrace.xz: Unexpected end of input
*** Reached end of trace for Core: 0 Repeating trace: /scratch/vsgirelli/ChampSim/trabalho_traces//454.calculix-104B.champsimtrace.xz
xz: /scratch/vsgirelli/ChampSim/trabalho_traces//454.calculix-104B.champsimtrace.xz: Unexpected end of input
*** Reached end of trace for Core: 0 Repeating trace: /scratch/vsgirelli/ChampSim/trabalho_traces//454.calculix-104B.champsimtrace.xz
xz: /scratch/vsgirelli/ChampSim/trabalho_traces//454.calculix-104B.champsimtrace.xz: Unexpected end of input
*** Reached end of trace for Core: 0 Repeating trace: /scratch/vsgirelli/ChampSim/trabalho_traces//454.calculix-104B.champsimtrace.xz
xz: /scratch/vsgirelli/ChampSim/trabalho_traces//454.calculix-104B.champsimtrace.xz: Unexpected end of input
*** Reached end of trace for Core: 0 Repeating trace: /scratch/vsgirelli/ChampSim/trabalho_traces//454.calculix-104B.champsimtrace.xz
xz: /scratch/vsgirelli/ChampSim/trabalho_traces//454.calculix-104B.champsimtrace.xz: Unexpected end of input
*** Reached end of trace for Core: 0 Repeating trace: /scratch/vsgirelli/ChampSim/trabalho_traces//454.calculix-104B.champsimtrace.xz
xz: /scratch/vsgirelli/ChampSim/trabalho_traces//454.calculix-104B.champsimtrace.xz: Unexpected end of input
*** Reached end of trace for Core: 0 Repeating trace: /scratch/vsgirelli/ChampSim/trabalho_traces//454.calculix-104B.champsimtrace.xz
xz: /scratch/vsgirelli/ChampSim/trabalho_traces//454.calculix-104B.champsimtrace.xz: Unexpected end of input
*** Reached end of trace for Core: 0 Repeating trace: /scratch/vsgirelli/ChampSim/trabalho_traces//454.calculix-104B.champsimtrace.xz
xz: /scratch/vsgirelli/ChampSim/trabalho_traces//454.calculix-104B.champsimtrace.xz: Unexpected end of input
*** Reached end of trace for Core: 0 Repeating trace: /scratch/vsgirelli/ChampSim/trabalho_traces//454.calculix-104B.champsimtrace.xz
xz: /scratch/vsgirelli/ChampSim/trabalho_traces//454.calculix-104B.champsimtrace.xz: Unexpected end of input
*** Reached end of trace for Core: 0 Repeating trace: /scratch/vsgirelli/ChampSim/trabalho_traces//454.calculix-104B.champsimtrace.xz
xz: /scratch/vsgirelli/ChampSim/trabalho_traces//454.calculix-104B.champsimtrace.xz: Unexpected end of input
*** Reached end of trace for Core: 0 Repeating trace: /scratch/vsgirelli/ChampSim/trabalho_traces//454.calculix-104B.champsimtrace.xz
xz: /scratch/vsgirelli/ChampSim/trabalho_traces//454.calculix-104B.champsimtrace.xz: Unexpected end of input
*** Reached end of trace for Core: 0 Repeating trace: /scratch/vsgirelli/ChampSim/trabalho_traces//454.calculix-104B.champsimtrace.xz
xz: /scratch/vsgirelli/ChampSim/trabalho_traces//454.calculix-104B.champsimtrace.xz: Unexpected end of input
*** Reached end of trace for Core: 0 Repeating trace: /scratch/vsgirelli/ChampSim/trabalho_traces//454.calculix-104B.champsimtrace.xz
xz: /scratch/vsgirelli/ChampSim/trabalho_traces//454.calculix-104B.champsimtrace.xz: Unexpected end of input
*** Reached end of trace for Core: 0 Repeating trace: /scratch/vsgirelli/ChampSim/trabalho_traces//454.calculix-104B.champsimtrace.xz
xz: /scratch/vsgirelli/ChampSim/trabalho_traces//454.calculix-104B.champsimtrace.xz: Unexpected end of input
*** Reached end of trace for Core: 0 Repeating trace: /scratch/vsgirelli/ChampSim/trabalho_traces//454.calculix-104B.champsimtrace.xz
Heartbeat CPU 0 instructions: 120000000 cycles: 61633003 heartbeat IPC: 1.92636 cumulative IPC: 1.92636 (Simulation time: 0 hr 4 min 9 sec) 
xz: /scratch/vsgirelli/ChampSim/trabalho_traces//454.calculix-104B.champsimtrace.xz: Unexpected end of input
*** Reached end of trace for Core: 0 Repeating trace: /scratch/vsgirelli/ChampSim/trabalho_traces//454.calculix-104B.champsimtrace.xz
xz: /scratch/vsgirelli/ChampSim/trabalho_traces//454.calculix-104B.champsimtrace.xz: Unexpected end of input
*** Reached end of trace for Core: 0 Repeating trace: /scratch/vsgirelli/ChampSim/trabalho_traces//454.calculix-104B.champsimtrace.xz
xz: /scratch/vsgirelli/ChampSim/trabalho_traces//454.calculix-104B.champsimtrace.xz: Unexpected end of input
*** Reached end of trace for Core: 0 Repeating trace: /scratch/vsgirelli/ChampSim/trabalho_traces//454.calculix-104B.champsimtrace.xz
xz: /scratch/vsgirelli/ChampSim/trabalho_traces//454.calculix-104B.champsimtrace.xz: Unexpected end of input
*** Reached end of trace for Core: 0 Repeating trace: /scratch/vsgirelli/ChampSim/trabalho_traces//454.calculix-104B.champsimtrace.xz
xz: /scratch/vsgirelli/ChampSim/trabalho_traces//454.calculix-104B.champsimtrace.xz: Unexpected end of input
*** Reached end of trace for Core: 0 Repeating trace: /scratch/vsgirelli/ChampSim/trabalho_traces//454.calculix-104B.champsimtrace.xz
xz: /scratch/vsgirelli/ChampSim/trabalho_traces//454.calculix-104B.champsimtrace.xz: Unexpected end of input
*** Reached end of trace for Core: 0 Repeating trace: /scratch/vsgirelli/ChampSim/trabalho_traces//454.calculix-104B.champsimtrace.xz
xz: /scratch/vsgirelli/ChampSim/trabalho_traces//454.calculix-104B.champsimtrace.xz: Unexpected end of input
*** Reached end of trace for Core: 0 Repeating trace: /scratch/vsgirelli/ChampSim/trabalho_traces//454.calculix-104B.champsimtrace.xz
xz: /scratch/vsgirelli/ChampSim/trabalho_traces//454.calculix-104B.champsimtrace.xz: Unexpected end of input
*** Reached end of trace for Core: 0 Repeating trace: /scratch/vsgirelli/ChampSim/trabalho_traces//454.calculix-104B.champsimtrace.xz
xz: /scratch/vsgirelli/ChampSim/trabalho_traces//454.calculix-104B.champsimtrace.xz: Unexpected end of input
*** Reached end of trace for Core: 0 Repeating trace: /scratch/vsgirelli/ChampSim/trabalho_traces//454.calculix-104B.champsimtrace.xz
xz: /scratch/vsgirelli/ChampSim/trabalho_traces//454.calculix-104B.champsimtrace.xz: Unexpected end of input
*** Reached end of trace for Core: 0 Repeating trace: /scratch/vsgirelli/ChampSim/trabalho_traces//454.calculix-104B.champsimtrace.xz
xz: /scratch/vsgirelli/ChampSim/trabalho_traces//454.calculix-104B.champsimtrace.xz: Unexpected end of input
*** Reached end of trace for Core: 0 Repeating trace: /scratch/vsgirelli/ChampSim/trabalho_traces//454.calculix-104B.champsimtrace.xz
xz: /scratch/vsgirelli/ChampSim/trabalho_traces//454.calculix-104B.champsimtrace.xz: Unexpected end of input
*** Reached end of trace for Core: 0 Repeating trace: /scratch/vsgirelli/ChampSim/trabalho_traces//454.calculix-104B.champsimtrace.xz
xz: /scratch/vsgirelli/ChampSim/trabalho_traces//454.calculix-104B.champsimtrace.xz: Unexpected end of input
*** Reached end of trace for Core: 0 Repeating trace: /scratch/vsgirelli/ChampSim/trabalho_traces//454.calculix-104B.champsimtrace.xz
xz: /scratch/vsgirelli/ChampSim/trabalho_traces//454.calculix-104B.champsimtrace.xz: Unexpected end of input
*** Reached end of trace for Core: 0 Repeating trace: /scratch/vsgirelli/ChampSim/trabalho_traces//454.calculix-104B.champsimtrace.xz
Heartbeat CPU 0 instructions: 130000001 cycles: 66824095 heartbeat IPC: 1.92638 cumulative IPC: 1.92636 (Simulation time: 0 hr 4 min 30 sec) 
xz: /scratch/vsgirelli/ChampSim/trabalho_traces//454.calculix-104B.champsimtrace.xz: Unexpected end of input
*** Reached end of trace for Core: 0 Repeating trace: /scratch/vsgirelli/ChampSim/trabalho_traces//454.calculix-104B.champsimtrace.xz
xz: /scratch/vsgirelli/ChampSim/trabalho_traces//454.calculix-104B.champsimtrace.xz: Unexpected end of input
*** Reached end of trace for Core: 0 Repeating trace: /scratch/vsgirelli/ChampSim/trabalho_traces//454.calculix-104B.champsimtrace.xz
xz: /scratch/vsgirelli/ChampSim/trabalho_traces//454.calculix-104B.champsimtrace.xz: Unexpected end of input
*** Reached end of trace for Core: 0 Repeating trace: /scratch/vsgirelli/ChampSim/trabalho_traces//454.calculix-104B.champsimtrace.xz
xz: /scratch/vsgirelli/ChampSim/trabalho_traces//454.calculix-104B.champsimtrace.xz: Unexpected end of input
*** Reached end of trace for Core: 0 Repeating trace: /scratch/vsgirelli/ChampSim/trabalho_traces//454.calculix-104B.champsimtrace.xz
xz: /scratch/vsgirelli/ChampSim/trabalho_traces//454.calculix-104B.champsimtrace.xz: Unexpected end of input
*** Reached end of trace for Core: 0 Repeating trace: /scratch/vsgirelli/ChampSim/trabalho_traces//454.calculix-104B.champsimtrace.xz
xz: /scratch/vsgirelli/ChampSim/trabalho_traces//454.calculix-104B.champsimtrace.xz: Unexpected end of input
*** Reached end of trace for Core: 0 Repeating trace: /scratch/vsgirelli/ChampSim/trabalho_traces//454.calculix-104B.champsimtrace.xz
xz: /scratch/vsgirelli/ChampSim/trabalho_traces//454.calculix-104B.champsimtrace.xz: Unexpected end of input
*** Reached end of trace for Core: 0 Repeating trace: /scratch/vsgirelli/ChampSim/trabalho_traces//454.calculix-104B.champsimtrace.xz
xz: /scratch/vsgirelli/ChampSim/trabalho_traces//454.calculix-104B.champsimtrace.xz: Unexpected end of input
*** Reached end of trace for Core: 0 Repeating trace: /scratch/vsgirelli/ChampSim/trabalho_traces//454.calculix-104B.champsimtrace.xz
xz: /scratch/vsgirelli/ChampSim/trabalho_traces//454.calculix-104B.champsimtrace.xz: Unexpected end of input
*** Reached end of trace for Core: 0 Repeating trace: /scratch/vsgirelli/ChampSim/trabalho_traces//454.calculix-104B.champsimtrace.xz
xz: /scratch/vsgirelli/ChampSim/trabalho_traces//454.calculix-104B.champsimtrace.xz: Unexpected end of input
*** Reached end of trace for Core: 0 Repeating trace: /scratch/vsgirelli/ChampSim/trabalho_traces//454.calculix-104B.champsimtrace.xz
xz: /scratch/vsgirelli/ChampSim/trabalho_traces//454.calculix-104B.champsimtrace.xz: Unexpected end of input
*** Reached end of trace for Core: 0 Repeating trace: /scratch/vsgirelli/ChampSim/trabalho_traces//454.calculix-104B.champsimtrace.xz
xz: /scratch/vsgirelli/ChampSim/trabalho_traces//454.calculix-104B.champsimtrace.xz: Unexpected end of input
*** Reached end of trace for Core: 0 Repeating trace: /scratch/vsgirelli/ChampSim/trabalho_traces//454.calculix-104B.champsimtrace.xz
xz: /scratch/vsgirelli/ChampSim/trabalho_traces//454.calculix-104B.champsimtrace.xz: Unexpected end of input
*** Reached end of trace for Core: 0 Repeating trace: /scratch/vsgirelli/ChampSim/trabalho_traces//454.calculix-104B.champsimtrace.xz
xz: /scratch/vsgirelli/ChampSim/trabalho_traces//454.calculix-104B.champsimtrace.xz: Unexpected end of input
*** Reached end of trace for Core: 0 Repeating trace: /scratch/vsgirelli/ChampSim/trabalho_traces//454.calculix-104B.champsimtrace.xz
Heartbeat CPU 0 instructions: 140000002 cycles: 72014967 heartbeat IPC: 1.92646 cumulative IPC: 1.92637 (Simulation time: 0 hr 4 min 50 sec) 
xz: /scratch/vsgirelli/ChampSim/trabalho_traces//454.calculix-104B.champsimtrace.xz: Unexpected end of input
*** Reached end of trace for Core: 0 Repeating trace: /scratch/vsgirelli/ChampSim/trabalho_traces//454.calculix-104B.champsimtrace.xz
xz: /scratch/vsgirelli/ChampSim/trabalho_traces//454.calculix-104B.champsimtrace.xz: Unexpected end of input
*** Reached end of trace for Core: 0 Repeating trace: /scratch/vsgirelli/ChampSim/trabalho_traces//454.calculix-104B.champsimtrace.xz
xz: /scratch/vsgirelli/ChampSim/trabalho_traces//454.calculix-104B.champsimtrace.xz: Unexpected end of input
*** Reached end of trace for Core: 0 Repeating trace: /scratch/vsgirelli/ChampSim/trabalho_traces//454.calculix-104B.champsimtrace.xz
xz: /scratch/vsgirelli/ChampSim/trabalho_traces//454.calculix-104B.champsimtrace.xz: Unexpected end of input
*** Reached end of trace for Core: 0 Repeating trace: /scratch/vsgirelli/ChampSim/trabalho_traces//454.calculix-104B.champsimtrace.xz
xz: /scratch/vsgirelli/ChampSim/trabalho_traces//454.calculix-104B.champsimtrace.xz: Unexpected end of input
*** Reached end of trace for Core: 0 Repeating trace: /scratch/vsgirelli/ChampSim/trabalho_traces//454.calculix-104B.champsimtrace.xz
xz: /scratch/vsgirelli/ChampSim/trabalho_traces//454.calculix-104B.champsimtrace.xz: Unexpected end of input
*** Reached end of trace for Core: 0 Repeating trace: /scratch/vsgirelli/ChampSim/trabalho_traces//454.calculix-104B.champsimtrace.xz
xz: /scratch/vsgirelli/ChampSim/trabalho_traces//454.calculix-104B.champsimtrace.xz: Unexpected end of input
*** Reached end of trace for Core: 0 Repeating trace: /scratch/vsgirelli/ChampSim/trabalho_traces//454.calculix-104B.champsimtrace.xz
xz: /scratch/vsgirelli/ChampSim/trabalho_traces//454.calculix-104B.champsimtrace.xz: Unexpected end of input
*** Reached end of trace for Core: 0 Repeating trace: /scratch/vsgirelli/ChampSim/trabalho_traces//454.calculix-104B.champsimtrace.xz
xz: /scratch/vsgirelli/ChampSim/trabalho_traces//454.calculix-104B.champsimtrace.xz: Unexpected end of input
*** Reached end of trace for Core: 0 Repeating trace: /scratch/vsgirelli/ChampSim/trabalho_traces//454.calculix-104B.champsimtrace.xz
xz: /scratch/vsgirelli/ChampSim/trabalho_traces//454.calculix-104B.champsimtrace.xz: Unexpected end of input
*** Reached end of trace for Core: 0 Repeating trace: /scratch/vsgirelli/ChampSim/trabalho_traces//454.calculix-104B.champsimtrace.xz
xz: /scratch/vsgirelli/ChampSim/trabalho_traces//454.calculix-104B.champsimtrace.xz: Unexpected end of input
*** Reached end of trace for Core: 0 Repeating trace: /scratch/vsgirelli/ChampSim/trabalho_traces//454.calculix-104B.champsimtrace.xz
xz: /scratch/vsgirelli/ChampSim/trabalho_traces//454.calculix-104B.champsimtrace.xz: Unexpected end of input
*** Reached end of trace for Core: 0 Repeating trace: /scratch/vsgirelli/ChampSim/trabalho_traces//454.calculix-104B.champsimtrace.xz
xz: /scratch/vsgirelli/ChampSim/trabalho_traces//454.calculix-104B.champsimtrace.xz: Unexpected end of input
*** Reached end of trace for Core: 0 Repeating trace: /scratch/vsgirelli/ChampSim/trabalho_traces//454.calculix-104B.champsimtrace.xz
xz: /scratch/vsgirelli/ChampSim/trabalho_traces//454.calculix-104B.champsimtrace.xz: Unexpected end of input
*** Reached end of trace for Core: 0 Repeating trace: /scratch/vsgirelli/ChampSim/trabalho_traces//454.calculix-104B.champsimtrace.xz
Heartbeat CPU 0 instructions: 150000001 cycles: 77206277 heartbeat IPC: 1.9263 cumulative IPC: 1.92637 (Simulation time: 0 hr 5 min 10 sec) 
xz: /scratch/vsgirelli/ChampSim/trabalho_traces//454.calculix-104B.champsimtrace.xz: Unexpected end of input
*** Reached end of trace for Core: 0 Repeating trace: /scratch/vsgirelli/ChampSim/trabalho_traces//454.calculix-104B.champsimtrace.xz
xz: /scratch/vsgirelli/ChampSim/trabalho_traces//454.calculix-104B.champsimtrace.xz: Unexpected end of input
*** Reached end of trace for Core: 0 Repeating trace: /scratch/vsgirelli/ChampSim/trabalho_traces//454.calculix-104B.champsimtrace.xz
xz: /scratch/vsgirelli/ChampSim/trabalho_traces//454.calculix-104B.champsimtrace.xz: Unexpected end of input
*** Reached end of trace for Core: 0 Repeating trace: /scratch/vsgirelli/ChampSim/trabalho_traces//454.calculix-104B.champsimtrace.xz
xz: /scratch/vsgirelli/ChampSim/trabalho_traces//454.calculix-104B.champsimtrace.xz: Unexpected end of input
*** Reached end of trace for Core: 0 Repeating trace: /scratch/vsgirelli/ChampSim/trabalho_traces//454.calculix-104B.champsimtrace.xz
xz: /scratch/vsgirelli/ChampSim/trabalho_traces//454.calculix-104B.champsimtrace.xz: Unexpected end of input
*** Reached end of trace for Core: 0 Repeating trace: /scratch/vsgirelli/ChampSim/trabalho_traces//454.calculix-104B.champsimtrace.xz
xz: /scratch/vsgirelli/ChampSim/trabalho_traces//454.calculix-104B.champsimtrace.xz: Unexpected end of input
*** Reached end of trace for Core: 0 Repeating trace: /scratch/vsgirelli/ChampSim/trabalho_traces//454.calculix-104B.champsimtrace.xz
xz: /scratch/vsgirelli/ChampSim/trabalho_traces//454.calculix-104B.champsimtrace.xz: Unexpected end of input
*** Reached end of trace for Core: 0 Repeating trace: /scratch/vsgirelli/ChampSim/trabalho_traces//454.calculix-104B.champsimtrace.xz
xz: /scratch/vsgirelli/ChampSim/trabalho_traces//454.calculix-104B.champsimtrace.xz: Unexpected end of input
*** Reached end of trace for Core: 0 Repeating trace: /scratch/vsgirelli/ChampSim/trabalho_traces//454.calculix-104B.champsimtrace.xz
xz: /scratch/vsgirelli/ChampSim/trabalho_traces//454.calculix-104B.champsimtrace.xz: Unexpected end of input
*** Reached end of trace for Core: 0 Repeating trace: /scratch/vsgirelli/ChampSim/trabalho_traces//454.calculix-104B.champsimtrace.xz
xz: /scratch/vsgirelli/ChampSim/trabalho_traces//454.calculix-104B.champsimtrace.xz: Unexpected end of input
*** Reached end of trace for Core: 0 Repeating trace: /scratch/vsgirelli/ChampSim/trabalho_traces//454.calculix-104B.champsimtrace.xz
xz: /scratch/vsgirelli/ChampSim/trabalho_traces//454.calculix-104B.champsimtrace.xz: Unexpected end of input
*** Reached end of trace for Core: 0 Repeating trace: /scratch/vsgirelli/ChampSim/trabalho_traces//454.calculix-104B.champsimtrace.xz
xz: /scratch/vsgirelli/ChampSim/trabalho_traces//454.calculix-104B.champsimtrace.xz: Unexpected end of input
*** Reached end of trace for Core: 0 Repeating trace: /scratch/vsgirelli/ChampSim/trabalho_traces//454.calculix-104B.champsimtrace.xz
xz: /scratch/vsgirelli/ChampSim/trabalho_traces//454.calculix-104B.champsimtrace.xz: Unexpected end of input
*** Reached end of trace for Core: 0 Repeating trace: /scratch/vsgirelli/ChampSim/trabalho_traces//454.calculix-104B.champsimtrace.xz
xz: /scratch/vsgirelli/ChampSim/trabalho_traces//454.calculix-104B.champsimtrace.xz: Unexpected end of input
*** Reached end of trace for Core: 0 Repeating trace: /scratch/vsgirelli/ChampSim/trabalho_traces//454.calculix-104B.champsimtrace.xz
Heartbeat CPU 0 instructions: 160000001 cycles: 82397063 heartbeat IPC: 1.92649 cumulative IPC: 1.92637 (Simulation time: 0 hr 5 min 31 sec) 
xz: /scratch/vsgirelli/ChampSim/trabalho_traces//454.calculix-104B.champsimtrace.xz: Unexpected end of input
*** Reached end of trace for Core: 0 Repeating trace: /scratch/vsgirelli/ChampSim/trabalho_traces//454.calculix-104B.champsimtrace.xz
xz: /scratch/vsgirelli/ChampSim/trabalho_traces//454.calculix-104B.champsimtrace.xz: Unexpected end of input
*** Reached end of trace for Core: 0 Repeating trace: /scratch/vsgirelli/ChampSim/trabalho_traces//454.calculix-104B.champsimtrace.xz
xz: /scratch/vsgirelli/ChampSim/trabalho_traces//454.calculix-104B.champsimtrace.xz: Unexpected end of input
*** Reached end of trace for Core: 0 Repeating trace: /scratch/vsgirelli/ChampSim/trabalho_traces//454.calculix-104B.champsimtrace.xz
xz: /scratch/vsgirelli/ChampSim/trabalho_traces//454.calculix-104B.champsimtrace.xz: Unexpected end of input
*** Reached end of trace for Core: 0 Repeating trace: /scratch/vsgirelli/ChampSim/trabalho_traces//454.calculix-104B.champsimtrace.xz
xz: /scratch/vsgirelli/ChampSim/trabalho_traces//454.calculix-104B.champsimtrace.xz: Unexpected end of input
*** Reached end of trace for Core: 0 Repeating trace: /scratch/vsgirelli/ChampSim/trabalho_traces//454.calculix-104B.champsimtrace.xz
xz: /scratch/vsgirelli/ChampSim/trabalho_traces//454.calculix-104B.champsimtrace.xz: Unexpected end of input
*** Reached end of trace for Core: 0 Repeating trace: /scratch/vsgirelli/ChampSim/trabalho_traces//454.calculix-104B.champsimtrace.xz
xz: /scratch/vsgirelli/ChampSim/trabalho_traces//454.calculix-104B.champsimtrace.xz: Unexpected end of input
*** Reached end of trace for Core: 0 Repeating trace: /scratch/vsgirelli/ChampSim/trabalho_traces//454.calculix-104B.champsimtrace.xz
xz: /scratch/vsgirelli/ChampSim/trabalho_traces//454.calculix-104B.champsimtrace.xz: Unexpected end of input
*** Reached end of trace for Core: 0 Repeating trace: /scratch/vsgirelli/ChampSim/trabalho_traces//454.calculix-104B.champsimtrace.xz
xz: /scratch/vsgirelli/ChampSim/trabalho_traces//454.calculix-104B.champsimtrace.xz: Unexpected end of input
*** Reached end of trace for Core: 0 Repeating trace: /scratch/vsgirelli/ChampSim/trabalho_traces//454.calculix-104B.champsimtrace.xz
xz: /scratch/vsgirelli/ChampSim/trabalho_traces//454.calculix-104B.champsimtrace.xz: Unexpected end of input
*** Reached end of trace for Core: 0 Repeating trace: /scratch/vsgirelli/ChampSim/trabalho_traces//454.calculix-104B.champsimtrace.xz
xz: /scratch/vsgirelli/ChampSim/trabalho_traces//454.calculix-104B.champsimtrace.xz: Unexpected end of input
*** Reached end of trace for Core: 0 Repeating trace: /scratch/vsgirelli/ChampSim/trabalho_traces//454.calculix-104B.champsimtrace.xz
xz: /scratch/vsgirelli/ChampSim/trabalho_traces//454.calculix-104B.champsimtrace.xz: Unexpected end of input
*** Reached end of trace for Core: 0 Repeating trace: /scratch/vsgirelli/ChampSim/trabalho_traces//454.calculix-104B.champsimtrace.xz
xz: /scratch/vsgirelli/ChampSim/trabalho_traces//454.calculix-104B.champsimtrace.xz: Unexpected end of input
*** Reached end of trace for Core: 0 Repeating trace: /scratch/vsgirelli/ChampSim/trabalho_traces//454.calculix-104B.champsimtrace.xz
xz: /scratch/vsgirelli/ChampSim/trabalho_traces//454.calculix-104B.champsimtrace.xz: Unexpected end of input
*** Reached end of trace for Core: 0 Repeating trace: /scratch/vsgirelli/ChampSim/trabalho_traces//454.calculix-104B.champsimtrace.xz
Heartbeat CPU 0 instructions: 170000000 cycles: 87588374 heartbeat IPC: 1.9263 cumulative IPC: 1.92637 (Simulation time: 0 hr 5 min 51 sec) 
xz: /scratch/vsgirelli/ChampSim/trabalho_traces//454.calculix-104B.champsimtrace.xz: Unexpected end of input
*** Reached end of trace for Core: 0 Repeating trace: /scratch/vsgirelli/ChampSim/trabalho_traces//454.calculix-104B.champsimtrace.xz
xz: /scratch/vsgirelli/ChampSim/trabalho_traces//454.calculix-104B.champsimtrace.xz: Unexpected end of input
*** Reached end of trace for Core: 0 Repeating trace: /scratch/vsgirelli/ChampSim/trabalho_traces//454.calculix-104B.champsimtrace.xz
xz: /scratch/vsgirelli/ChampSim/trabalho_traces//454.calculix-104B.champsimtrace.xz: Unexpected end of input
*** Reached end of trace for Core: 0 Repeating trace: /scratch/vsgirelli/ChampSim/trabalho_traces//454.calculix-104B.champsimtrace.xz
xz: /scratch/vsgirelli/ChampSim/trabalho_traces//454.calculix-104B.champsimtrace.xz: Unexpected end of input
*** Reached end of trace for Core: 0 Repeating trace: /scratch/vsgirelli/ChampSim/trabalho_traces//454.calculix-104B.champsimtrace.xz
xz: /scratch/vsgirelli/ChampSim/trabalho_traces//454.calculix-104B.champsimtrace.xz: Unexpected end of input
*** Reached end of trace for Core: 0 Repeating trace: /scratch/vsgirelli/ChampSim/trabalho_traces//454.calculix-104B.champsimtrace.xz
xz: /scratch/vsgirelli/ChampSim/trabalho_traces//454.calculix-104B.champsimtrace.xz: Unexpected end of input
*** Reached end of trace for Core: 0 Repeating trace: /scratch/vsgirelli/ChampSim/trabalho_traces//454.calculix-104B.champsimtrace.xz
xz: /scratch/vsgirelli/ChampSim/trabalho_traces//454.calculix-104B.champsimtrace.xz: Unexpected end of input
*** Reached end of trace for Core: 0 Repeating trace: /scratch/vsgirelli/ChampSim/trabalho_traces//454.calculix-104B.champsimtrace.xz
xz: /scratch/vsgirelli/ChampSim/trabalho_traces//454.calculix-104B.champsimtrace.xz: Unexpected end of input
*** Reached end of trace for Core: 0 Repeating trace: /scratch/vsgirelli/ChampSim/trabalho_traces//454.calculix-104B.champsimtrace.xz
xz: /scratch/vsgirelli/ChampSim/trabalho_traces//454.calculix-104B.champsimtrace.xz: Unexpected end of input
*** Reached end of trace for Core: 0 Repeating trace: /scratch/vsgirelli/ChampSim/trabalho_traces//454.calculix-104B.champsimtrace.xz
xz: /scratch/vsgirelli/ChampSim/trabalho_traces//454.calculix-104B.champsimtrace.xz: Unexpected end of input
*** Reached end of trace for Core: 0 Repeating trace: /scratch/vsgirelli/ChampSim/trabalho_traces//454.calculix-104B.champsimtrace.xz
xz: /scratch/vsgirelli/ChampSim/trabalho_traces//454.calculix-104B.champsimtrace.xz: Unexpected end of input
*** Reached end of trace for Core: 0 Repeating trace: /scratch/vsgirelli/ChampSim/trabalho_traces//454.calculix-104B.champsimtrace.xz
xz: /scratch/vsgirelli/ChampSim/trabalho_traces//454.calculix-104B.champsimtrace.xz: Unexpected end of input
*** Reached end of trace for Core: 0 Repeating trace: /scratch/vsgirelli/ChampSim/trabalho_traces//454.calculix-104B.champsimtrace.xz
xz: /scratch/vsgirelli/ChampSim/trabalho_traces//454.calculix-104B.champsimtrace.xz: Unexpected end of input
*** Reached end of trace for Core: 0 Repeating trace: /scratch/vsgirelli/ChampSim/trabalho_traces//454.calculix-104B.champsimtrace.xz
xz: /scratch/vsgirelli/ChampSim/trabalho_traces//454.calculix-104B.champsimtrace.xz: Unexpected end of input
*** Reached end of trace for Core: 0 Repeating trace: /scratch/vsgirelli/ChampSim/trabalho_traces//454.calculix-104B.champsimtrace.xz
xz: /scratch/vsgirelli/ChampSim/trabalho_traces//454.calculix-104B.champsimtrace.xz: Unexpected end of input
*** Reached end of trace for Core: 0 Repeating trace: /scratch/vsgirelli/ChampSim/trabalho_traces//454.calculix-104B.champsimtrace.xz
Heartbeat CPU 0 instructions: 180000001 cycles: 92779179 heartbeat IPC: 1.92648 cumulative IPC: 1.92638 (Simulation time: 0 hr 6 min 12 sec) 
xz: /scratch/vsgirelli/ChampSim/trabalho_traces//454.calculix-104B.champsimtrace.xz: Unexpected end of input
*** Reached end of trace for Core: 0 Repeating trace: /scratch/vsgirelli/ChampSim/trabalho_traces//454.calculix-104B.champsimtrace.xz
xz: /scratch/vsgirelli/ChampSim/trabalho_traces//454.calculix-104B.champsimtrace.xz: Unexpected end of input
*** Reached end of trace for Core: 0 Repeating trace: /scratch/vsgirelli/ChampSim/trabalho_traces//454.calculix-104B.champsimtrace.xz
xz: /scratch/vsgirelli/ChampSim/trabalho_traces//454.calculix-104B.champsimtrace.xz: Unexpected end of input
*** Reached end of trace for Core: 0 Repeating trace: /scratch/vsgirelli/ChampSim/trabalho_traces//454.calculix-104B.champsimtrace.xz
xz: /scratch/vsgirelli/ChampSim/trabalho_traces//454.calculix-104B.champsimtrace.xz: Unexpected end of input
*** Reached end of trace for Core: 0 Repeating trace: /scratch/vsgirelli/ChampSim/trabalho_traces//454.calculix-104B.champsimtrace.xz
xz: /scratch/vsgirelli/ChampSim/trabalho_traces//454.calculix-104B.champsimtrace.xz: Unexpected end of input
*** Reached end of trace for Core: 0 Repeating trace: /scratch/vsgirelli/ChampSim/trabalho_traces//454.calculix-104B.champsimtrace.xz
xz: /scratch/vsgirelli/ChampSim/trabalho_traces//454.calculix-104B.champsimtrace.xz: Unexpected end of input
*** Reached end of trace for Core: 0 Repeating trace: /scratch/vsgirelli/ChampSim/trabalho_traces//454.calculix-104B.champsimtrace.xz
xz: /scratch/vsgirelli/ChampSim/trabalho_traces//454.calculix-104B.champsimtrace.xz: Unexpected end of input
*** Reached end of trace for Core: 0 Repeating trace: /scratch/vsgirelli/ChampSim/trabalho_traces//454.calculix-104B.champsimtrace.xz
xz: /scratch/vsgirelli/ChampSim/trabalho_traces//454.calculix-104B.champsimtrace.xz: Unexpected end of input
*** Reached end of trace for Core: 0 Repeating trace: /scratch/vsgirelli/ChampSim/trabalho_traces//454.calculix-104B.champsimtrace.xz
xz: /scratch/vsgirelli/ChampSim/trabalho_traces//454.calculix-104B.champsimtrace.xz: Unexpected end of input
*** Reached end of trace for Core: 0 Repeating trace: /scratch/vsgirelli/ChampSim/trabalho_traces//454.calculix-104B.champsimtrace.xz
xz: /scratch/vsgirelli/ChampSim/trabalho_traces//454.calculix-104B.champsimtrace.xz: Unexpected end of input
*** Reached end of trace for Core: 0 Repeating trace: /scratch/vsgirelli/ChampSim/trabalho_traces//454.calculix-104B.champsimtrace.xz
xz: /scratch/vsgirelli/ChampSim/trabalho_traces//454.calculix-104B.champsimtrace.xz: Unexpected end of input
*** Reached end of trace for Core: 0 Repeating trace: /scratch/vsgirelli/ChampSim/trabalho_traces//454.calculix-104B.champsimtrace.xz
xz: /scratch/vsgirelli/ChampSim/trabalho_traces//454.calculix-104B.champsimtrace.xz: Unexpected end of input
*** Reached end of trace for Core: 0 Repeating trace: /scratch/vsgirelli/ChampSim/trabalho_traces//454.calculix-104B.champsimtrace.xz
xz: /scratch/vsgirelli/ChampSim/trabalho_traces//454.calculix-104B.champsimtrace.xz: Unexpected end of input
*** Reached end of trace for Core: 0 Repeating trace: /scratch/vsgirelli/ChampSim/trabalho_traces//454.calculix-104B.champsimtrace.xz
xz: /scratch/vsgirelli/ChampSim/trabalho_traces//454.calculix-104B.champsimtrace.xz: Unexpected end of input
*** Reached end of trace for Core: 0 Repeating trace: /scratch/vsgirelli/ChampSim/trabalho_traces//454.calculix-104B.champsimtrace.xz
Heartbeat CPU 0 instructions: 190000000 cycles: 97970253 heartbeat IPC: 1.92638 cumulative IPC: 1.92638 (Simulation time: 0 hr 6 min 32 sec) 
xz: /scratch/vsgirelli/ChampSim/trabalho_traces//454.calculix-104B.champsimtrace.xz: Unexpected end of input
*** Reached end of trace for Core: 0 Repeating trace: /scratch/vsgirelli/ChampSim/trabalho_traces//454.calculix-104B.champsimtrace.xz
xz: /scratch/vsgirelli/ChampSim/trabalho_traces//454.calculix-104B.champsimtrace.xz: Unexpected end of input
*** Reached end of trace for Core: 0 Repeating trace: /scratch/vsgirelli/ChampSim/trabalho_traces//454.calculix-104B.champsimtrace.xz
xz: /scratch/vsgirelli/ChampSim/trabalho_traces//454.calculix-104B.champsimtrace.xz: Unexpected end of input
*** Reached end of trace for Core: 0 Repeating trace: /scratch/vsgirelli/ChampSim/trabalho_traces//454.calculix-104B.champsimtrace.xz
xz: /scratch/vsgirelli/ChampSim/trabalho_traces//454.calculix-104B.champsimtrace.xz: Unexpected end of input
*** Reached end of trace for Core: 0 Repeating trace: /scratch/vsgirelli/ChampSim/trabalho_traces//454.calculix-104B.champsimtrace.xz
xz: /scratch/vsgirelli/ChampSim/trabalho_traces//454.calculix-104B.champsimtrace.xz: Unexpected end of input
*** Reached end of trace for Core: 0 Repeating trace: /scratch/vsgirelli/ChampSim/trabalho_traces//454.calculix-104B.champsimtrace.xz
xz: /scratch/vsgirelli/ChampSim/trabalho_traces//454.calculix-104B.champsimtrace.xz: Unexpected end of input
*** Reached end of trace for Core: 0 Repeating trace: /scratch/vsgirelli/ChampSim/trabalho_traces//454.calculix-104B.champsimtrace.xz
xz: /scratch/vsgirelli/ChampSim/trabalho_traces//454.calculix-104B.champsimtrace.xz: Unexpected end of input
*** Reached end of trace for Core: 0 Repeating trace: /scratch/vsgirelli/ChampSim/trabalho_traces//454.calculix-104B.champsimtrace.xz
xz: /scratch/vsgirelli/ChampSim/trabalho_traces//454.calculix-104B.champsimtrace.xz: Unexpected end of input
*** Reached end of trace for Core: 0 Repeating trace: /scratch/vsgirelli/ChampSim/trabalho_traces//454.calculix-104B.champsimtrace.xz
xz: /scratch/vsgirelli/ChampSim/trabalho_traces//454.calculix-104B.champsimtrace.xz: Unexpected end of input
*** Reached end of trace for Core: 0 Repeating trace: /scratch/vsgirelli/ChampSim/trabalho_traces//454.calculix-104B.champsimtrace.xz
xz: /scratch/vsgirelli/ChampSim/trabalho_traces//454.calculix-104B.champsimtrace.xz: Unexpected end of input
*** Reached end of trace for Core: 0 Repeating trace: /scratch/vsgirelli/ChampSim/trabalho_traces//454.calculix-104B.champsimtrace.xz
xz: /scratch/vsgirelli/ChampSim/trabalho_traces//454.calculix-104B.champsimtrace.xz: Unexpected end of input
*** Reached end of trace for Core: 0 Repeating trace: /scratch/vsgirelli/ChampSim/trabalho_traces//454.calculix-104B.champsimtrace.xz
xz: /scratch/vsgirelli/ChampSim/trabalho_traces//454.calculix-104B.champsimtrace.xz: Unexpected end of input
*** Reached end of trace for Core: 0 Repeating trace: /scratch/vsgirelli/ChampSim/trabalho_traces//454.calculix-104B.champsimtrace.xz
xz: /scratch/vsgirelli/ChampSim/trabalho_traces//454.calculix-104B.champsimtrace.xz: Unexpected end of input
*** Reached end of trace for Core: 0 Repeating trace: /scratch/vsgirelli/ChampSim/trabalho_traces//454.calculix-104B.champsimtrace.xz
xz: /scratch/vsgirelli/ChampSim/trabalho_traces//454.calculix-104B.champsimtrace.xz: Unexpected end of input
*** Reached end of trace for Core: 0 Repeating trace: /scratch/vsgirelli/ChampSim/trabalho_traces//454.calculix-104B.champsimtrace.xz
Heartbeat CPU 0 instructions: 200000003 cycles: 103161439 heartbeat IPC: 1.92634 cumulative IPC: 1.92637 (Simulation time: 0 hr 6 min 53 sec) 
xz: /scratch/vsgirelli/ChampSim/trabalho_traces//454.calculix-104B.champsimtrace.xz: Unexpected end of input
*** Reached end of trace for Core: 0 Repeating trace: /scratch/vsgirelli/ChampSim/trabalho_traces//454.calculix-104B.champsimtrace.xz
xz: /scratch/vsgirelli/ChampSim/trabalho_traces//454.calculix-104B.champsimtrace.xz: Unexpected end of input
*** Reached end of trace for Core: 0 Repeating trace: /scratch/vsgirelli/ChampSim/trabalho_traces//454.calculix-104B.champsimtrace.xz
xz: /scratch/vsgirelli/ChampSim/trabalho_traces//454.calculix-104B.champsimtrace.xz: Unexpected end of input
*** Reached end of trace for Core: 0 Repeating trace: /scratch/vsgirelli/ChampSim/trabalho_traces//454.calculix-104B.champsimtrace.xz
xz: /scratch/vsgirelli/ChampSim/trabalho_traces//454.calculix-104B.champsimtrace.xz: Unexpected end of input
*** Reached end of trace for Core: 0 Repeating trace: /scratch/vsgirelli/ChampSim/trabalho_traces//454.calculix-104B.champsimtrace.xz
xz: /scratch/vsgirelli/ChampSim/trabalho_traces//454.calculix-104B.champsimtrace.xz: Unexpected end of input
*** Reached end of trace for Core: 0 Repeating trace: /scratch/vsgirelli/ChampSim/trabalho_traces//454.calculix-104B.champsimtrace.xz
xz: /scratch/vsgirelli/ChampSim/trabalho_traces//454.calculix-104B.champsimtrace.xz: Unexpected end of input
*** Reached end of trace for Core: 0 Repeating trace: /scratch/vsgirelli/ChampSim/trabalho_traces//454.calculix-104B.champsimtrace.xz
xz: /scratch/vsgirelli/ChampSim/trabalho_traces//454.calculix-104B.champsimtrace.xz: Unexpected end of input
*** Reached end of trace for Core: 0 Repeating trace: /scratch/vsgirelli/ChampSim/trabalho_traces//454.calculix-104B.champsimtrace.xz
Finished CPU 0 instructions: 200000003 cycles: 103821929 cumulative IPC: 1.92638 (Simulation time: 0 hr 7 min 3 sec) 

ChampSim completed all CPUs

Region of Interest Statistics

CPU 0 cumulative IPC: 1.92638 instructions: 200000003 cycles: 103821929
L1D TOTAL     ACCESS:   84930759  HIT:   84930759  MISS:          0
L1D LOAD      ACCESS:   40824146  HIT:   40824146  MISS:          0
L1D RFO       ACCESS:    3351307  HIT:    3351307  MISS:          0
L1D PREFETCH  ACCESS:   40755306  HIT:   40755306  MISS:          0
L1D WRITEBACK ACCESS:          0  HIT:          0  MISS:          0
L1D PREFETCH  REQUESTED:   42351137  ISSUED:   42344605  USEFUL:         61  USELESS:          0
L1D AVERAGE MISS LATENCY: -nan cycles
L1I TOTAL     ACCESS:   36992094  HIT:   36992094  MISS:          0
L1I LOAD      ACCESS:   36992094  HIT:   36992094  MISS:          0
L1I RFO       ACCESS:          0  HIT:          0  MISS:          0
L1I PREFETCH  ACCESS:          0  HIT:          0  MISS:          0
L1I WRITEBACK ACCESS:          0  HIT:          0  MISS:          0
L1I PREFETCH  REQUESTED:         33  ISSUED:         33  USEFUL:          5  USELESS:          0
L1I AVERAGE MISS LATENCY: -nan cycles
L2C TOTAL     ACCESS:          0  HIT:          0  MISS:          0
L2C LOAD      ACCESS:          0  HIT:          0  MISS:          0
L2C RFO       ACCESS:          0  HIT:          0  MISS:          0
L2C PREFETCH  ACCESS:          0  HIT:          0  MISS:          0
L2C WRITEBACK ACCESS:          0  HIT:          0  MISS:          0
L2C PREFETCH  REQUESTED:         37  ISSUED:         37  USEFUL:          0  USELESS:          0
L2C AVERAGE MISS LATENCY: -nan cycles
LLC TOTAL     ACCESS:          0  HIT:          0  MISS:          0
LLC LOAD      ACCESS:          0  HIT:          0  MISS:          0
LLC RFO       ACCESS:          0  HIT:          0  MISS:          0
LLC PREFETCH  ACCESS:          0  HIT:          0  MISS:          0
LLC WRITEBACK ACCESS:          0  HIT:          0  MISS:          0
LLC PREFETCH  REQUESTED:        150  ISSUED:        149  USEFUL:          5  USELESS:          0
LLC AVERAGE MISS LATENCY: -nan cycles
Major fault: 0 Minor fault: 8
CPU 0 L1D next line prefetcher final stats

L2C Signature Path Prefetcher final stats
LLC Next Line Prefetcher Final Stats: none

DRAM Statistics
 CHANNEL 0
 RQ ROW_BUFFER_HIT:          0  ROW_BUFFER_MISS:          0
 DBUS_CONGESTED:          0
 WQ ROW_BUFFER_HIT:          0  ROW_BUFFER_MISS:          0  FULL:          0

 AVG_CONGESTED_CYCLE: -

CPU 0 Branch Prediction Accuracy: 99.6916% MPKI: 0.277905 Average ROB Occupancy at Mispredict: 59.4474

Branch types
NOT_BRANCH: 181978515 90.9893%
BRANCH_DIRECT_JUMP: 2940840 1.47042%
BRANCH_INDIRECT: 0 0%
BRANCH_CONDITIONAL: 15080375 7.54019%
BRANCH_DIRECT_CALL: 0 0%
BRANCH_INDIRECT_CALL: 0 0%
BRANCH_RETURN: 0 0%
BRANCH_OTHER: 0 0%

