
*** ChampSim Multicore Out-of-Order Simulator ***

Warmup Instructions: 5000000
Simulation Instructions: 200000000
Number of CPUs: 1
LLC sets: 2048
LLC ways: 16
Off-chip DRAM Size: 4096 MB Channels: 1 Width: 64-bit Data Rate: 3200 MT/s

CPU 0 runs /scratch/vsgirelli/ChampSim/trabalho_traces//454.calculix-104B.champsimtrace.xz
CPU 0 Bimodal branch predictor
xz: /scratch/vsgirelli/ChampSim/trabalho_traces//454.calculix-104B.champsimtrace.xz: Unexpected end of input
*** Reached end of trace for Core: 0 Repeating trace: /scratch/vsgirelli/ChampSim/trabalho_traces//454.calculix-104B.champsimtrace.xz
xz: /scratch/vsgirelli/ChampSim/trabalho_traces//454.calculix-104B.champsimtrace.xz: Unexpected end of input
*** Reached end of trace for Core: 0 Repeating trace: /scratch/vsgirelli/ChampSim/trabalho_traces//454.calculix-104B.champsimtrace.xz
xz: /scratch/vsgirelli/ChampSim/trabalho_traces//454.calculix-104B.champsimtrace.xz: Unexpected end of input
*** Reached end of trace for Core: 0 Repeating trace: /scratch/vsgirelli/ChampSim/trabalho_traces//454.calculix-104B.champsimtrace.xz
xz: /scratch/vsgirelli/ChampSim/trabalho_traces//454.calculix-104B.champsimtrace.xz: Unexpected end of input
*** Reached end of trace for Core: 0 Repeating trace: /scratch/vsgirelli/ChampSim/trabalho_traces//454.calculix-104B.champsimtrace.xz
xz: /scratch/vsgirelli/ChampSim/trabalho_traces//454.calculix-104B.champsimtrace.xz: Unexpected end of input
*** Reached end of trace for Core: 0 Repeating trace: /scratch/vsgirelli/ChampSim/trabalho_traces//454.calculix-104B.champsimtrace.xz
xz: /scratch/vsgirelli/ChampSim/trabalho_traces//454.calculix-104B.champsimtrace.xz: Unexpected end of input
*** Reached end of trace for Core: 0 Repeating trace: /scratch/vsgirelli/ChampSim/trabalho_traces//454.calculix-104B.champsimtrace.xz
xz: /scratch/vsgirelli/ChampSim/trabalho_traces//454.calculix-104B.champsimtrace.xz: Unexpected end of input
*** Reached end of trace for Core: 0 Repeating trace: /scratch/vsgirelli/ChampSim/trabalho_traces//454.calculix-104B.champsimtrace.xz

Warmup complete CPU 0 instructions: 5000001 cycles: 1935013 (Simulation time: 0 hr 0 min 14 sec) 

xz: /scratch/vsgirelli/ChampSim/trabalho_traces//454.calculix-104B.champsimtrace.xz: Unexpected end of input
*** Reached end of trace for Core: 0 Repeating trace: /scratch/vsgirelli/ChampSim/trabalho_traces//454.calculix-104B.champsimtrace.xz
xz: /scratch/vsgirelli/ChampSim/trabalho_traces//454.calculix-104B.champsimtrace.xz: Unexpected end of input
*** Reached end of trace for Core: 0 Repeating trace: /scratch/vsgirelli/ChampSim/trabalho_traces//454.calculix-104B.champsimtrace.xz
xz: /scratch/vsgirelli/ChampSim/trabalho_traces//454.calculix-104B.champsimtrace.xz: Unexpected end of input
*** Reached end of trace for Core: 0 Repeating trace: /scratch/vsgirelli/ChampSim/trabalho_traces//454.calculix-104B.champsimtrace.xz
xz: /scratch/vsgirelli/ChampSim/trabalho_traces//454.calculix-104B.champsimtrace.xz: Unexpected end of input
*** Reached end of trace for Core: 0 Repeating trace: /scratch/vsgirelli/ChampSim/trabalho_traces//454.calculix-104B.champsimtrace.xz
xz: /scratch/vsgirelli/ChampSim/trabalho_traces//454.calculix-104B.champsimtrace.xz: Unexpected end of input
*** Reached end of trace for Core: 0 Repeating trace: /scratch/vsgirelli/ChampSim/trabalho_traces//454.calculix-104B.champsimtrace.xz
xz: /scratch/vsgirelli/ChampSim/trabalho_traces//454.calculix-104B.champsimtrace.xz: Unexpected end of input
*** Reached end of trace for Core: 0 Repeating trace: /scratch/vsgirelli/ChampSim/trabalho_traces//454.calculix-104B.champsimtrace.xz
xz: /scratch/vsgirelli/ChampSim/trabalho_traces//454.calculix-104B.champsimtrace.xz: Unexpected end of input
*** Reached end of trace for Core: 0 Repeating trace: /scratch/vsgirelli/ChampSim/trabalho_traces//454.calculix-104B.champsimtrace.xz
Heartbeat CPU 0 instructions: 10000000 cycles: 6137459 heartbeat IPC: 1.62934 cumulative IPC: 1.18978 (Simulation time: 0 hr 0 min 22 sec) 
xz: /scratch/vsgirelli/ChampSim/trabalho_traces//454.calculix-104B.champsimtrace.xz: Unexpected end of input
*** Reached end of trace for Core: 0 Repeating trace: /scratch/vsgirelli/ChampSim/trabalho_traces//454.calculix-104B.champsimtrace.xz
xz: /scratch/vsgirelli/ChampSim/trabalho_traces//454.calculix-104B.champsimtrace.xz: Unexpected end of input
*** Reached end of trace for Core: 0 Repeating trace: /scratch/vsgirelli/ChampSim/trabalho_traces//454.calculix-104B.champsimtrace.xz
xz: /scratch/vsgirelli/ChampSim/trabalho_traces//454.calculix-104B.champsimtrace.xz: Unexpected end of input
*** Reached end of trace for Core: 0 Repeating trace: /scratch/vsgirelli/ChampSim/trabalho_traces//454.calculix-104B.champsimtrace.xz
xz: /scratch/vsgirelli/ChampSim/trabalho_traces//454.calculix-104B.champsimtrace.xz: Unexpected end of input
*** Reached end of trace for Core: 0 Repeating trace: /scratch/vsgirelli/ChampSim/trabalho_traces//454.calculix-104B.champsimtrace.xz
xz: /scratch/vsgirelli/ChampSim/trabalho_traces//454.calculix-104B.champsimtrace.xz: Unexpected end of input
*** Reached end of trace for Core: 0 Repeating trace: /scratch/vsgirelli/ChampSim/trabalho_traces//454.calculix-104B.champsimtrace.xz
xz: /scratch/vsgirelli/ChampSim/trabalho_traces//454.calculix-104B.champsimtrace.xz: Unexpected end of input
*** Reached end of trace for Core: 0 Repeating trace: /scratch/vsgirelli/ChampSim/trabalho_traces//454.calculix-104B.champsimtrace.xz
xz: /scratch/vsgirelli/ChampSim/trabalho_traces//454.calculix-104B.champsimtrace.xz: Unexpected end of input
*** Reached end of trace for Core: 0 Repeating trace: /scratch/vsgirelli/ChampSim/trabalho_traces//454.calculix-104B.champsimtrace.xz
xz: /scratch/vsgirelli/ChampSim/trabalho_traces//454.calculix-104B.champsimtrace.xz: Unexpected end of input
*** Reached end of trace for Core: 0 Repeating trace: /scratch/vsgirelli/ChampSim/trabalho_traces//454.calculix-104B.champsimtrace.xz
xz: /scratch/vsgirelli/ChampSim/trabalho_traces//454.calculix-104B.champsimtrace.xz: Unexpected end of input
*** Reached end of trace for Core: 0 Repeating trace: /scratch/vsgirelli/ChampSim/trabalho_traces//454.calculix-104B.champsimtrace.xz
xz: /scratch/vsgirelli/ChampSim/trabalho_traces//454.calculix-104B.champsimtrace.xz: Unexpected end of input
*** Reached end of trace for Core: 0 Repeating trace: /scratch/vsgirelli/ChampSim/trabalho_traces//454.calculix-104B.champsimtrace.xz
xz: /scratch/vsgirelli/ChampSim/trabalho_traces//454.calculix-104B.champsimtrace.xz: Unexpected end of input
*** Reached end of trace for Core: 0 Repeating trace: /scratch/vsgirelli/ChampSim/trabalho_traces//454.calculix-104B.champsimtrace.xz
xz: /scratch/vsgirelli/ChampSim/trabalho_traces//454.calculix-104B.champsimtrace.xz: Unexpected end of input
*** Reached end of trace for Core: 0 Repeating trace: /scratch/vsgirelli/ChampSim/trabalho_traces//454.calculix-104B.champsimtrace.xz
xz: /scratch/vsgirelli/ChampSim/trabalho_traces//454.calculix-104B.champsimtrace.xz: Unexpected end of input
*** Reached end of trace for Core: 0 Repeating trace: /scratch/vsgirelli/ChampSim/trabalho_traces//454.calculix-104B.champsimtrace.xz
xz: /scratch/vsgirelli/ChampSim/trabalho_traces//454.calculix-104B.champsimtrace.xz: Unexpected end of input
*** Reached end of trace for Core: 0 Repeating trace: /scratch/vsgirelli/ChampSim/trabalho_traces//454.calculix-104B.champsimtrace.xz
Heartbeat CPU 0 instructions: 20000001 cycles: 14546802 heartbeat IPC: 1.18915 cumulative IPC: 1.18936 (Simulation time: 0 hr 0 min 39 sec) 
xz: /scratch/vsgirelli/ChampSim/trabalho_traces//454.calculix-104B.champsimtrace.xz: Unexpected end of input
*** Reached end of trace for Core: 0 Repeating trace: /scratch/vsgirelli/ChampSim/trabalho_traces//454.calculix-104B.champsimtrace.xz
xz: /scratch/vsgirelli/ChampSim/trabalho_traces//454.calculix-104B.champsimtrace.xz: Unexpected end of input
*** Reached end of trace for Core: 0 Repeating trace: /scratch/vsgirelli/ChampSim/trabalho_traces//454.calculix-104B.champsimtrace.xz
xz: /scratch/vsgirelli/ChampSim/trabalho_traces//454.calculix-104B.champsimtrace.xz: Unexpected end of input
*** Reached end of trace for Core: 0 Repeating trace: /scratch/vsgirelli/ChampSim/trabalho_traces//454.calculix-104B.champsimtrace.xz
xz: /scratch/vsgirelli/ChampSim/trabalho_traces//454.calculix-104B.champsimtrace.xz: Unexpected end of input
*** Reached end of trace for Core: 0 Repeating trace: /scratch/vsgirelli/ChampSim/trabalho_traces//454.calculix-104B.champsimtrace.xz
xz: /scratch/vsgirelli/ChampSim/trabalho_traces//454.calculix-104B.champsimtrace.xz: Unexpected end of input
*** Reached end of trace for Core: 0 Repeating trace: /scratch/vsgirelli/ChampSim/trabalho_traces//454.calculix-104B.champsimtrace.xz
xz: /scratch/vsgirelli/ChampSim/trabalho_traces//454.calculix-104B.champsimtrace.xz: Unexpected end of input
*** Reached end of trace for Core: 0 Repeating trace: /scratch/vsgirelli/ChampSim/trabalho_traces//454.calculix-104B.champsimtrace.xz
xz: /scratch/vsgirelli/ChampSim/trabalho_traces//454.calculix-104B.champsimtrace.xz: Unexpected end of input
*** Reached end of trace for Core: 0 Repeating trace: /scratch/vsgirelli/ChampSim/trabalho_traces//454.calculix-104B.champsimtrace.xz
xz: /scratch/vsgirelli/ChampSim/trabalho_traces//454.calculix-104B.champsimtrace.xz: Unexpected end of input
*** Reached end of trace for Core: 0 Repeating trace: /scratch/vsgirelli/ChampSim/trabalho_traces//454.calculix-104B.champsimtrace.xz
xz: /scratch/vsgirelli/ChampSim/trabalho_traces//454.calculix-104B.champsimtrace.xz: Unexpected end of input
*** Reached end of trace for Core: 0 Repeating trace: /scratch/vsgirelli/ChampSim/trabalho_traces//454.calculix-104B.champsimtrace.xz
xz: /scratch/vsgirelli/ChampSim/trabalho_traces//454.calculix-104B.champsimtrace.xz: Unexpected end of input
*** Reached end of trace for Core: 0 Repeating trace: /scratch/vsgirelli/ChampSim/trabalho_traces//454.calculix-104B.champsimtrace.xz
xz: /scratch/vsgirelli/ChampSim/trabalho_traces//454.calculix-104B.champsimtrace.xz: Unexpected end of input
*** Reached end of trace for Core: 0 Repeating trace: /scratch/vsgirelli/ChampSim/trabalho_traces//454.calculix-104B.champsimtrace.xz
xz: /scratch/vsgirelli/ChampSim/trabalho_traces//454.calculix-104B.champsimtrace.xz: Unexpected end of input
*** Reached end of trace for Core: 0 Repeating trace: /scratch/vsgirelli/ChampSim/trabalho_traces//454.calculix-104B.champsimtrace.xz
xz: /scratch/vsgirelli/ChampSim/trabalho_traces//454.calculix-104B.champsimtrace.xz: Unexpected end of input
*** Reached end of trace for Core: 0 Repeating trace: /scratch/vsgirelli/ChampSim/trabalho_traces//454.calculix-104B.champsimtrace.xz
xz: /scratch/vsgirelli/ChampSim/trabalho_traces//454.calculix-104B.champsimtrace.xz: Unexpected end of input
*** Reached end of trace for Core: 0 Repeating trace: /scratch/vsgirelli/ChampSim/trabalho_traces//454.calculix-104B.champsimtrace.xz
Heartbeat CPU 0 instructions: 30000002 cycles: 22953780 heartbeat IPC: 1.18949 cumulative IPC: 1.18941 (Simulation time: 0 hr 0 min 55 sec) 
xz: /scratch/vsgirelli/ChampSim/trabalho_traces//454.calculix-104B.champsimtrace.xz: Unexpected end of input
*** Reached end of trace for Core: 0 Repeating trace: /scratch/vsgirelli/ChampSim/trabalho_traces//454.calculix-104B.champsimtrace.xz
xz: /scratch/vsgirelli/ChampSim/trabalho_traces//454.calculix-104B.champsimtrace.xz: Unexpected end of input
*** Reached end of trace for Core: 0 Repeating trace: /scratch/vsgirelli/ChampSim/trabalho_traces//454.calculix-104B.champsimtrace.xz
xz: /scratch/vsgirelli/ChampSim/trabalho_traces//454.calculix-104B.champsimtrace.xz: Unexpected end of input
*** Reached end of trace for Core: 0 Repeating trace: /scratch/vsgirelli/ChampSim/trabalho_traces//454.calculix-104B.champsimtrace.xz
xz: /scratch/vsgirelli/ChampSim/trabalho_traces//454.calculix-104B.champsimtrace.xz: Unexpected end of input
*** Reached end of trace for Core: 0 Repeating trace: /scratch/vsgirelli/ChampSim/trabalho_traces//454.calculix-104B.champsimtrace.xz
xz: /scratch/vsgirelli/ChampSim/trabalho_traces//454.calculix-104B.champsimtrace.xz: Unexpected end of input
*** Reached end of trace for Core: 0 Repeating trace: /scratch/vsgirelli/ChampSim/trabalho_traces//454.calculix-104B.champsimtrace.xz
xz: /scratch/vsgirelli/ChampSim/trabalho_traces//454.calculix-104B.champsimtrace.xz: Unexpected end of input
*** Reached end of trace for Core: 0 Repeating trace: /scratch/vsgirelli/ChampSim/trabalho_traces//454.calculix-104B.champsimtrace.xz
xz: /scratch/vsgirelli/ChampSim/trabalho_traces//454.calculix-104B.champsimtrace.xz: Unexpected end of input
*** Reached end of trace for Core: 0 Repeating trace: /scratch/vsgirelli/ChampSim/trabalho_traces//454.calculix-104B.champsimtrace.xz
xz: /scratch/vsgirelli/ChampSim/trabalho_traces//454.calculix-104B.champsimtrace.xz: Unexpected end of input
*** Reached end of trace for Core: 0 Repeating trace: /scratch/vsgirelli/ChampSim/trabalho_traces//454.calculix-104B.champsimtrace.xz
xz: /scratch/vsgirelli/ChampSim/trabalho_traces//454.calculix-104B.champsimtrace.xz: Unexpected end of input
*** Reached end of trace for Core: 0 Repeating trace: /scratch/vsgirelli/ChampSim/trabalho_traces//454.calculix-104B.champsimtrace.xz
xz: /scratch/vsgirelli/ChampSim/trabalho_traces//454.calculix-104B.champsimtrace.xz: Unexpected end of input
*** Reached end of trace for Core: 0 Repeating trace: /scratch/vsgirelli/ChampSim/trabalho_traces//454.calculix-104B.champsimtrace.xz
xz: /scratch/vsgirelli/ChampSim/trabalho_traces//454.calculix-104B.champsimtrace.xz: Unexpected end of input
*** Reached end of trace for Core: 0 Repeating trace: /scratch/vsgirelli/ChampSim/trabalho_traces//454.calculix-104B.champsimtrace.xz
xz: /scratch/vsgirelli/ChampSim/trabalho_traces//454.calculix-104B.champsimtrace.xz: Unexpected end of input
*** Reached end of trace for Core: 0 Repeating trace: /scratch/vsgirelli/ChampSim/trabalho_traces//454.calculix-104B.champsimtrace.xz
xz: /scratch/vsgirelli/ChampSim/trabalho_traces//454.calculix-104B.champsimtrace.xz: Unexpected end of input
*** Reached end of trace for Core: 0 Repeating trace: /scratch/vsgirelli/ChampSim/trabalho_traces//454.calculix-104B.champsimtrace.xz
xz: /scratch/vsgirelli/ChampSim/trabalho_traces//454.calculix-104B.champsimtrace.xz: Unexpected end of input
*** Reached end of trace for Core: 0 Repeating trace: /scratch/vsgirelli/ChampSim/trabalho_traces//454.calculix-104B.champsimtrace.xz
Heartbeat CPU 0 instructions: 40000003 cycles: 31363758 heartbeat IPC: 1.18906 cumulative IPC: 1.18931 (Simulation time: 0 hr 1 min 12 sec) 
xz: /scratch/vsgirelli/ChampSim/trabalho_traces//454.calculix-104B.champsimtrace.xz: Unexpected end of input
*** Reached end of trace for Core: 0 Repeating trace: /scratch/vsgirelli/ChampSim/trabalho_traces//454.calculix-104B.champsimtrace.xz
xz: /scratch/vsgirelli/ChampSim/trabalho_traces//454.calculix-104B.champsimtrace.xz: Unexpected end of input
*** Reached end of trace for Core: 0 Repeating trace: /scratch/vsgirelli/ChampSim/trabalho_traces//454.calculix-104B.champsimtrace.xz
xz: /scratch/vsgirelli/ChampSim/trabalho_traces//454.calculix-104B.champsimtrace.xz: Unexpected end of input
*** Reached end of trace for Core: 0 Repeating trace: /scratch/vsgirelli/ChampSim/trabalho_traces//454.calculix-104B.champsimtrace.xz
xz: /scratch/vsgirelli/ChampSim/trabalho_traces//454.calculix-104B.champsimtrace.xz: Unexpected end of input
*** Reached end of trace for Core: 0 Repeating trace: /scratch/vsgirelli/ChampSim/trabalho_traces//454.calculix-104B.champsimtrace.xz
xz: /scratch/vsgirelli/ChampSim/trabalho_traces//454.calculix-104B.champsimtrace.xz: Unexpected end of input
*** Reached end of trace for Core: 0 Repeating trace: /scratch/vsgirelli/ChampSim/trabalho_traces//454.calculix-104B.champsimtrace.xz
xz: /scratch/vsgirelli/ChampSim/trabalho_traces//454.calculix-104B.champsimtrace.xz: Unexpected end of input
*** Reached end of trace for Core: 0 Repeating trace: /scratch/vsgirelli/ChampSim/trabalho_traces//454.calculix-104B.champsimtrace.xz
xz: /scratch/vsgirelli/ChampSim/trabalho_traces//454.calculix-104B.champsimtrace.xz: Unexpected end of input
*** Reached end of trace for Core: 0 Repeating trace: /scratch/vsgirelli/ChampSim/trabalho_traces//454.calculix-104B.champsimtrace.xz
xz: /scratch/vsgirelli/ChampSim/trabalho_traces//454.calculix-104B.champsimtrace.xz: Unexpected end of input
*** Reached end of trace for Core: 0 Repeating trace: /scratch/vsgirelli/ChampSim/trabalho_traces//454.calculix-104B.champsimtrace.xz
xz: /scratch/vsgirelli/ChampSim/trabalho_traces//454.calculix-104B.champsimtrace.xz: Unexpected end of input
*** Reached end of trace for Core: 0 Repeating trace: /scratch/vsgirelli/ChampSim/trabalho_traces//454.calculix-104B.champsimtrace.xz
xz: /scratch/vsgirelli/ChampSim/trabalho_traces//454.calculix-104B.champsimtrace.xz: Unexpected end of input
*** Reached end of trace for Core: 0 Repeating trace: /scratch/vsgirelli/ChampSim/trabalho_traces//454.calculix-104B.champsimtrace.xz
xz: /scratch/vsgirelli/ChampSim/trabalho_traces//454.calculix-104B.champsimtrace.xz: Unexpected end of input
*** Reached end of trace for Core: 0 Repeating trace: /scratch/vsgirelli/ChampSim/trabalho_traces//454.calculix-104B.champsimtrace.xz
xz: /scratch/vsgirelli/ChampSim/trabalho_traces//454.calculix-104B.champsimtrace.xz: Unexpected end of input
*** Reached end of trace for Core: 0 Repeating trace: /scratch/vsgirelli/ChampSim/trabalho_traces//454.calculix-104B.champsimtrace.xz
xz: /scratch/vsgirelli/ChampSim/trabalho_traces//454.calculix-104B.champsimtrace.xz: Unexpected end of input
*** Reached end of trace for Core: 0 Repeating trace: /scratch/vsgirelli/ChampSim/trabalho_traces//454.calculix-104B.champsimtrace.xz
xz: /scratch/vsgirelli/ChampSim/trabalho_traces//454.calculix-104B.champsimtrace.xz: Unexpected end of input
*** Reached end of trace for Core: 0 Repeating trace: /scratch/vsgirelli/ChampSim/trabalho_traces//454.calculix-104B.champsimtrace.xz
Heartbeat CPU 0 instructions: 50000001 cycles: 39770709 heartbeat IPC: 1.18949 cumulative IPC: 1.18935 (Simulation time: 0 hr 1 min 28 sec) 
xz: /scratch/vsgirelli/ChampSim/trabalho_traces//454.calculix-104B.champsimtrace.xz: Unexpected end of input
*** Reached end of trace for Core: 0 Repeating trace: /scratch/vsgirelli/ChampSim/trabalho_traces//454.calculix-104B.champsimtrace.xz
xz: /scratch/vsgirelli/ChampSim/trabalho_traces//454.calculix-104B.champsimtrace.xz: Unexpected end of input
*** Reached end of trace for Core: 0 Repeating trace: /scratch/vsgirelli/ChampSim/trabalho_traces//454.calculix-104B.champsimtrace.xz
xz: /scratch/vsgirelli/ChampSim/trabalho_traces//454.calculix-104B.champsimtrace.xz: Unexpected end of input
*** Reached end of trace for Core: 0 Repeating trace: /scratch/vsgirelli/ChampSim/trabalho_traces//454.calculix-104B.champsimtrace.xz
xz: /scratch/vsgirelli/ChampSim/trabalho_traces//454.calculix-104B.champsimtrace.xz: Unexpected end of input
*** Reached end of trace for Core: 0 Repeating trace: /scratch/vsgirelli/ChampSim/trabalho_traces//454.calculix-104B.champsimtrace.xz
xz: /scratch/vsgirelli/ChampSim/trabalho_traces//454.calculix-104B.champsimtrace.xz: Unexpected end of input
*** Reached end of trace for Core: 0 Repeating trace: /scratch/vsgirelli/ChampSim/trabalho_traces//454.calculix-104B.champsimtrace.xz
xz: /scratch/vsgirelli/ChampSim/trabalho_traces//454.calculix-104B.champsimtrace.xz: Unexpected end of input
*** Reached end of trace for Core: 0 Repeating trace: /scratch/vsgirelli/ChampSim/trabalho_traces//454.calculix-104B.champsimtrace.xz
xz: /scratch/vsgirelli/ChampSim/trabalho_traces//454.calculix-104B.champsimtrace.xz: Unexpected end of input
*** Reached end of trace for Core: 0 Repeating trace: /scratch/vsgirelli/ChampSim/trabalho_traces//454.calculix-104B.champsimtrace.xz
xz: /scratch/vsgirelli/ChampSim/trabalho_traces//454.calculix-104B.champsimtrace.xz: Unexpected end of input
*** Reached end of trace for Core: 0 Repeating trace: /scratch/vsgirelli/ChampSim/trabalho_traces//454.calculix-104B.champsimtrace.xz
xz: /scratch/vsgirelli/ChampSim/trabalho_traces//454.calculix-104B.champsimtrace.xz: Unexpected end of input
*** Reached end of trace for Core: 0 Repeating trace: /scratch/vsgirelli/ChampSim/trabalho_traces//454.calculix-104B.champsimtrace.xz
xz: /scratch/vsgirelli/ChampSim/trabalho_traces//454.calculix-104B.champsimtrace.xz: Unexpected end of input
*** Reached end of trace for Core: 0 Repeating trace: /scratch/vsgirelli/ChampSim/trabalho_traces//454.calculix-104B.champsimtrace.xz
xz: /scratch/vsgirelli/ChampSim/trabalho_traces//454.calculix-104B.champsimtrace.xz: Unexpected end of input
*** Reached end of trace for Core: 0 Repeating trace: /scratch/vsgirelli/ChampSim/trabalho_traces//454.calculix-104B.champsimtrace.xz
xz: /scratch/vsgirelli/ChampSim/trabalho_traces//454.calculix-104B.champsimtrace.xz: Unexpected end of input
*** Reached end of trace for Core: 0 Repeating trace: /scratch/vsgirelli/ChampSim/trabalho_traces//454.calculix-104B.champsimtrace.xz
xz: /scratch/vsgirelli/ChampSim/trabalho_traces//454.calculix-104B.champsimtrace.xz: Unexpected end of input
*** Reached end of trace for Core: 0 Repeating trace: /scratch/vsgirelli/ChampSim/trabalho_traces//454.calculix-104B.champsimtrace.xz
xz: /scratch/vsgirelli/ChampSim/trabalho_traces//454.calculix-104B.champsimtrace.xz: Unexpected end of input
*** Reached end of trace for Core: 0 Repeating trace: /scratch/vsgirelli/ChampSim/trabalho_traces//454.calculix-104B.champsimtrace.xz
xz: /scratch/vsgirelli/ChampSim/trabalho_traces//454.calculix-104B.champsimtrace.xz: Unexpected end of input
*** Reached end of trace for Core: 0 Repeating trace: /scratch/vsgirelli/ChampSim/trabalho_traces//454.calculix-104B.champsimtrace.xz
Heartbeat CPU 0 instructions: 60000000 cycles: 48179336 heartbeat IPC: 1.18925 cumulative IPC: 1.18934 (Simulation time: 0 hr 1 min 45 sec) 
xz: /scratch/vsgirelli/ChampSim/trabalho_traces//454.calculix-104B.champsimtrace.xz: Unexpected end of input
*** Reached end of trace for Core: 0 Repeating trace: /scratch/vsgirelli/ChampSim/trabalho_traces//454.calculix-104B.champsimtrace.xz
xz: /scratch/vsgirelli/ChampSim/trabalho_traces//454.calculix-104B.champsimtrace.xz: Unexpected end of input
*** Reached end of trace for Core: 0 Repeating trace: /scratch/vsgirelli/ChampSim/trabalho_traces//454.calculix-104B.champsimtrace.xz
xz: /scratch/vsgirelli/ChampSim/trabalho_traces//454.calculix-104B.champsimtrace.xz: Unexpected end of input
*** Reached end of trace for Core: 0 Repeating trace: /scratch/vsgirelli/ChampSim/trabalho_traces//454.calculix-104B.champsimtrace.xz
xz: /scratch/vsgirelli/ChampSim/trabalho_traces//454.calculix-104B.champsimtrace.xz: Unexpected end of input
*** Reached end of trace for Core: 0 Repeating trace: /scratch/vsgirelli/ChampSim/trabalho_traces//454.calculix-104B.champsimtrace.xz
xz: /scratch/vsgirelli/ChampSim/trabalho_traces//454.calculix-104B.champsimtrace.xz: Unexpected end of input
*** Reached end of trace for Core: 0 Repeating trace: /scratch/vsgirelli/ChampSim/trabalho_traces//454.calculix-104B.champsimtrace.xz
xz: /scratch/vsgirelli/ChampSim/trabalho_traces//454.calculix-104B.champsimtrace.xz: Unexpected end of input
*** Reached end of trace for Core: 0 Repeating trace: /scratch/vsgirelli/ChampSim/trabalho_traces//454.calculix-104B.champsimtrace.xz
xz: /scratch/vsgirelli/ChampSim/trabalho_traces//454.calculix-104B.champsimtrace.xz: Unexpected end of input
*** Reached end of trace for Core: 0 Repeating trace: /scratch/vsgirelli/ChampSim/trabalho_traces//454.calculix-104B.champsimtrace.xz
xz: /scratch/vsgirelli/ChampSim/trabalho_traces//454.calculix-104B.champsimtrace.xz: Unexpected end of input
*** Reached end of trace for Core: 0 Repeating trace: /scratch/vsgirelli/ChampSim/trabalho_traces//454.calculix-104B.champsimtrace.xz
xz: /scratch/vsgirelli/ChampSim/trabalho_traces//454.calculix-104B.champsimtrace.xz: Unexpected end of input
*** Reached end of trace for Core: 0 Repeating trace: /scratch/vsgirelli/ChampSim/trabalho_traces//454.calculix-104B.champsimtrace.xz
xz: /scratch/vsgirelli/ChampSim/trabalho_traces//454.calculix-104B.champsimtrace.xz: Unexpected end of input
*** Reached end of trace for Core: 0 Repeating trace: /scratch/vsgirelli/ChampSim/trabalho_traces//454.calculix-104B.champsimtrace.xz
xz: /scratch/vsgirelli/ChampSim/trabalho_traces//454.calculix-104B.champsimtrace.xz: Unexpected end of input
*** Reached end of trace for Core: 0 Repeating trace: /scratch/vsgirelli/ChampSim/trabalho_traces//454.calculix-104B.champsimtrace.xz
xz: /scratch/vsgirelli/ChampSim/trabalho_traces//454.calculix-104B.champsimtrace.xz: Unexpected end of input
*** Reached end of trace for Core: 0 Repeating trace: /scratch/vsgirelli/ChampSim/trabalho_traces//454.calculix-104B.champsimtrace.xz
xz: /scratch/vsgirelli/ChampSim/trabalho_traces//454.calculix-104B.champsimtrace.xz: Unexpected end of input
*** Reached end of trace for Core: 0 Repeating trace: /scratch/vsgirelli/ChampSim/trabalho_traces//454.calculix-104B.champsimtrace.xz
xz: /scratch/vsgirelli/ChampSim/trabalho_traces//454.calculix-104B.champsimtrace.xz: Unexpected end of input
*** Reached end of trace for Core: 0 Repeating trace: /scratch/vsgirelli/ChampSim/trabalho_traces//454.calculix-104B.champsimtrace.xz
Heartbeat CPU 0 instructions: 70000000 cycles: 56588037 heartbeat IPC: 1.18924 cumulative IPC: 1.18932 (Simulation time: 0 hr 2 min 1 sec) 
xz: /scratch/vsgirelli/ChampSim/trabalho_traces//454.calculix-104B.champsimtrace.xz: Unexpected end of input
*** Reached end of trace for Core: 0 Repeating trace: /scratch/vsgirelli/ChampSim/trabalho_traces//454.calculix-104B.champsimtrace.xz
xz: /scratch/vsgirelli/ChampSim/trabalho_traces//454.calculix-104B.champsimtrace.xz: Unexpected end of input
*** Reached end of trace for Core: 0 Repeating trace: /scratch/vsgirelli/ChampSim/trabalho_traces//454.calculix-104B.champsimtrace.xz
xz: /scratch/vsgirelli/ChampSim/trabalho_traces//454.calculix-104B.champsimtrace.xz: Unexpected end of input
*** Reached end of trace for Core: 0 Repeating trace: /scratch/vsgirelli/ChampSim/trabalho_traces//454.calculix-104B.champsimtrace.xz
xz: /scratch/vsgirelli/ChampSim/trabalho_traces//454.calculix-104B.champsimtrace.xz: Unexpected end of input
*** Reached end of trace for Core: 0 Repeating trace: /scratch/vsgirelli/ChampSim/trabalho_traces//454.calculix-104B.champsimtrace.xz
xz: /scratch/vsgirelli/ChampSim/trabalho_traces//454.calculix-104B.champsimtrace.xz: Unexpected end of input
*** Reached end of trace for Core: 0 Repeating trace: /scratch/vsgirelli/ChampSim/trabalho_traces//454.calculix-104B.champsimtrace.xz
xz: /scratch/vsgirelli/ChampSim/trabalho_traces//454.calculix-104B.champsimtrace.xz: Unexpected end of input
*** Reached end of trace for Core: 0 Repeating trace: /scratch/vsgirelli/ChampSim/trabalho_traces//454.calculix-104B.champsimtrace.xz
xz: /scratch/vsgirelli/ChampSim/trabalho_traces//454.calculix-104B.champsimtrace.xz: Unexpected end of input
*** Reached end of trace for Core: 0 Repeating trace: /scratch/vsgirelli/ChampSim/trabalho_traces//454.calculix-104B.champsimtrace.xz
xz: /scratch/vsgirelli/ChampSim/trabalho_traces//454.calculix-104B.champsimtrace.xz: Unexpected end of input
*** Reached end of trace for Core: 0 Repeating trace: /scratch/vsgirelli/ChampSim/trabalho_traces//454.calculix-104B.champsimtrace.xz
xz: /scratch/vsgirelli/ChampSim/trabalho_traces//454.calculix-104B.champsimtrace.xz: Unexpected end of input
*** Reached end of trace for Core: 0 Repeating trace: /scratch/vsgirelli/ChampSim/trabalho_traces//454.calculix-104B.champsimtrace.xz
xz: /scratch/vsgirelli/ChampSim/trabalho_traces//454.calculix-104B.champsimtrace.xz: Unexpected end of input
*** Reached end of trace for Core: 0 Repeating trace: /scratch/vsgirelli/ChampSim/trabalho_traces//454.calculix-104B.champsimtrace.xz
xz: /scratch/vsgirelli/ChampSim/trabalho_traces//454.calculix-104B.champsimtrace.xz: Unexpected end of input
*** Reached end of trace for Core: 0 Repeating trace: /scratch/vsgirelli/ChampSim/trabalho_traces//454.calculix-104B.champsimtrace.xz
xz: /scratch/vsgirelli/ChampSim/trabalho_traces//454.calculix-104B.champsimtrace.xz: Unexpected end of input
*** Reached end of trace for Core: 0 Repeating trace: /scratch/vsgirelli/ChampSim/trabalho_traces//454.calculix-104B.champsimtrace.xz
xz: /scratch/vsgirelli/ChampSim/trabalho_traces//454.calculix-104B.champsimtrace.xz: Unexpected end of input
*** Reached end of trace for Core: 0 Repeating trace: /scratch/vsgirelli/ChampSim/trabalho_traces//454.calculix-104B.champsimtrace.xz
xz: /scratch/vsgirelli/ChampSim/trabalho_traces//454.calculix-104B.champsimtrace.xz: Unexpected end of input
*** Reached end of trace for Core: 0 Repeating trace: /scratch/vsgirelli/ChampSim/trabalho_traces//454.calculix-104B.champsimtrace.xz
Heartbeat CPU 0 instructions: 80000001 cycles: 64995373 heartbeat IPC: 1.18944 cumulative IPC: 1.18934 (Simulation time: 0 hr 2 min 18 sec) 
xz: /scratch/vsgirelli/ChampSim/trabalho_traces//454.calculix-104B.champsimtrace.xz: Unexpected end of input
*** Reached end of trace for Core: 0 Repeating trace: /scratch/vsgirelli/ChampSim/trabalho_traces//454.calculix-104B.champsimtrace.xz
xz: /scratch/vsgirelli/ChampSim/trabalho_traces//454.calculix-104B.champsimtrace.xz: Unexpected end of input
*** Reached end of trace for Core: 0 Repeating trace: /scratch/vsgirelli/ChampSim/trabalho_traces//454.calculix-104B.champsimtrace.xz
xz: /scratch/vsgirelli/ChampSim/trabalho_traces//454.calculix-104B.champsimtrace.xz: Unexpected end of input
*** Reached end of trace for Core: 0 Repeating trace: /scratch/vsgirelli/ChampSim/trabalho_traces//454.calculix-104B.champsimtrace.xz
xz: /scratch/vsgirelli/ChampSim/trabalho_traces//454.calculix-104B.champsimtrace.xz: Unexpected end of input
*** Reached end of trace for Core: 0 Repeating trace: /scratch/vsgirelli/ChampSim/trabalho_traces//454.calculix-104B.champsimtrace.xz
xz: /scratch/vsgirelli/ChampSim/trabalho_traces//454.calculix-104B.champsimtrace.xz: Unexpected end of input
*** Reached end of trace for Core: 0 Repeating trace: /scratch/vsgirelli/ChampSim/trabalho_traces//454.calculix-104B.champsimtrace.xz
xz: /scratch/vsgirelli/ChampSim/trabalho_traces//454.calculix-104B.champsimtrace.xz: Unexpected end of input
*** Reached end of trace for Core: 0 Repeating trace: /scratch/vsgirelli/ChampSim/trabalho_traces//454.calculix-104B.champsimtrace.xz
xz: /scratch/vsgirelli/ChampSim/trabalho_traces//454.calculix-104B.champsimtrace.xz: Unexpected end of input
*** Reached end of trace for Core: 0 Repeating trace: /scratch/vsgirelli/ChampSim/trabalho_traces//454.calculix-104B.champsimtrace.xz
xz: /scratch/vsgirelli/ChampSim/trabalho_traces//454.calculix-104B.champsimtrace.xz: Unexpected end of input
*** Reached end of trace for Core: 0 Repeating trace: /scratch/vsgirelli/ChampSim/trabalho_traces//454.calculix-104B.champsimtrace.xz
xz: /scratch/vsgirelli/ChampSim/trabalho_traces//454.calculix-104B.champsimtrace.xz: Unexpected end of input
*** Reached end of trace for Core: 0 Repeating trace: /scratch/vsgirelli/ChampSim/trabalho_traces//454.calculix-104B.champsimtrace.xz
xz: /scratch/vsgirelli/ChampSim/trabalho_traces//454.calculix-104B.champsimtrace.xz: Unexpected end of input
*** Reached end of trace for Core: 0 Repeating trace: /scratch/vsgirelli/ChampSim/trabalho_traces//454.calculix-104B.champsimtrace.xz
xz: /scratch/vsgirelli/ChampSim/trabalho_traces//454.calculix-104B.champsimtrace.xz: Unexpected end of input
*** Reached end of trace for Core: 0 Repeating trace: /scratch/vsgirelli/ChampSim/trabalho_traces//454.calculix-104B.champsimtrace.xz
xz: /scratch/vsgirelli/ChampSim/trabalho_traces//454.calculix-104B.champsimtrace.xz: Unexpected end of input
*** Reached end of trace for Core: 0 Repeating trace: /scratch/vsgirelli/ChampSim/trabalho_traces//454.calculix-104B.champsimtrace.xz
xz: /scratch/vsgirelli/ChampSim/trabalho_traces//454.calculix-104B.champsimtrace.xz: Unexpected end of input
*** Reached end of trace for Core: 0 Repeating trace: /scratch/vsgirelli/ChampSim/trabalho_traces//454.calculix-104B.champsimtrace.xz
xz: /scratch/vsgirelli/ChampSim/trabalho_traces//454.calculix-104B.champsimtrace.xz: Unexpected end of input
*** Reached end of trace for Core: 0 Repeating trace: /scratch/vsgirelli/ChampSim/trabalho_traces//454.calculix-104B.champsimtrace.xz
Heartbeat CPU 0 instructions: 90000000 cycles: 73404755 heartbeat IPC: 1.18915 cumulative IPC: 1.18931 (Simulation time: 0 hr 2 min 35 sec) 
xz: /scratch/vsgirelli/ChampSim/trabalho_traces//454.calculix-104B.champsimtrace.xz: Unexpected end of input
*** Reached end of trace for Core: 0 Repeating trace: /scratch/vsgirelli/ChampSim/trabalho_traces//454.calculix-104B.champsimtrace.xz
xz: /scratch/vsgirelli/ChampSim/trabalho_traces//454.calculix-104B.champsimtrace.xz: Unexpected end of input
*** Reached end of trace for Core: 0 Repeating trace: /scratch/vsgirelli/ChampSim/trabalho_traces//454.calculix-104B.champsimtrace.xz
xz: /scratch/vsgirelli/ChampSim/trabalho_traces//454.calculix-104B.champsimtrace.xz: Unexpected end of input
*** Reached end of trace for Core: 0 Repeating trace: /scratch/vsgirelli/ChampSim/trabalho_traces//454.calculix-104B.champsimtrace.xz
xz: /scratch/vsgirelli/ChampSim/trabalho_traces//454.calculix-104B.champsimtrace.xz: Unexpected end of input
*** Reached end of trace for Core: 0 Repeating trace: /scratch/vsgirelli/ChampSim/trabalho_traces//454.calculix-104B.champsimtrace.xz
xz: /scratch/vsgirelli/ChampSim/trabalho_traces//454.calculix-104B.champsimtrace.xz: Unexpected end of input
*** Reached end of trace for Core: 0 Repeating trace: /scratch/vsgirelli/ChampSim/trabalho_traces//454.calculix-104B.champsimtrace.xz
xz: /scratch/vsgirelli/ChampSim/trabalho_traces//454.calculix-104B.champsimtrace.xz: Unexpected end of input
*** Reached end of trace for Core: 0 Repeating trace: /scratch/vsgirelli/ChampSim/trabalho_traces//454.calculix-104B.champsimtrace.xz
xz: /scratch/vsgirelli/ChampSim/trabalho_traces//454.calculix-104B.champsimtrace.xz: Unexpected end of input
*** Reached end of trace for Core: 0 Repeating trace: /scratch/vsgirelli/ChampSim/trabalho_traces//454.calculix-104B.champsimtrace.xz
xz: /scratch/vsgirelli/ChampSim/trabalho_traces//454.calculix-104B.champsimtrace.xz: Unexpected end of input
*** Reached end of trace for Core: 0 Repeating trace: /scratch/vsgirelli/ChampSim/trabalho_traces//454.calculix-104B.champsimtrace.xz
xz: /scratch/vsgirelli/ChampSim/trabalho_traces//454.calculix-104B.champsimtrace.xz: Unexpected end of input
*** Reached end of trace for Core: 0 Repeating trace: /scratch/vsgirelli/ChampSim/trabalho_traces//454.calculix-104B.champsimtrace.xz
xz: /scratch/vsgirelli/ChampSim/trabalho_traces//454.calculix-104B.champsimtrace.xz: Unexpected end of input
*** Reached end of trace for Core: 0 Repeating trace: /scratch/vsgirelli/ChampSim/trabalho_traces//454.calculix-104B.champsimtrace.xz
xz: /scratch/vsgirelli/ChampSim/trabalho_traces//454.calculix-104B.champsimtrace.xz: Unexpected end of input
*** Reached end of trace for Core: 0 Repeating trace: /scratch/vsgirelli/ChampSim/trabalho_traces//454.calculix-104B.champsimtrace.xz
xz: /scratch/vsgirelli/ChampSim/trabalho_traces//454.calculix-104B.champsimtrace.xz: Unexpected end of input
*** Reached end of trace for Core: 0 Repeating trace: /scratch/vsgirelli/ChampSim/trabalho_traces//454.calculix-104B.champsimtrace.xz
xz: /scratch/vsgirelli/ChampSim/trabalho_traces//454.calculix-104B.champsimtrace.xz: Unexpected end of input
*** Reached end of trace for Core: 0 Repeating trace: /scratch/vsgirelli/ChampSim/trabalho_traces//454.calculix-104B.champsimtrace.xz
xz: /scratch/vsgirelli/ChampSim/trabalho_traces//454.calculix-104B.champsimtrace.xz: Unexpected end of input
*** Reached end of trace for Core: 0 Repeating trace: /scratch/vsgirelli/ChampSim/trabalho_traces//454.calculix-104B.champsimtrace.xz
Heartbeat CPU 0 instructions: 100000000 cycles: 81812200 heartbeat IPC: 1.18942 cumulative IPC: 1.18933 (Simulation time: 0 hr 2 min 51 sec) 
xz: /scratch/vsgirelli/ChampSim/trabalho_traces//454.calculix-104B.champsimtrace.xz: Unexpected end of input
*** Reached end of trace for Core: 0 Repeating trace: /scratch/vsgirelli/ChampSim/trabalho_traces//454.calculix-104B.champsimtrace.xz
xz: /scratch/vsgirelli/ChampSim/trabalho_traces//454.calculix-104B.champsimtrace.xz: Unexpected end of input
*** Reached end of trace for Core: 0 Repeating trace: /scratch/vsgirelli/ChampSim/trabalho_traces//454.calculix-104B.champsimtrace.xz
xz: /scratch/vsgirelli/ChampSim/trabalho_traces//454.calculix-104B.champsimtrace.xz: Unexpected end of input
*** Reached end of trace for Core: 0 Repeating trace: /scratch/vsgirelli/ChampSim/trabalho_traces//454.calculix-104B.champsimtrace.xz
xz: /scratch/vsgirelli/ChampSim/trabalho_traces//454.calculix-104B.champsimtrace.xz: Unexpected end of input
*** Reached end of trace for Core: 0 Repeating trace: /scratch/vsgirelli/ChampSim/trabalho_traces//454.calculix-104B.champsimtrace.xz
xz: /scratch/vsgirelli/ChampSim/trabalho_traces//454.calculix-104B.champsimtrace.xz: Unexpected end of input
*** Reached end of trace for Core: 0 Repeating trace: /scratch/vsgirelli/ChampSim/trabalho_traces//454.calculix-104B.champsimtrace.xz
xz: /scratch/vsgirelli/ChampSim/trabalho_traces//454.calculix-104B.champsimtrace.xz: Unexpected end of input
*** Reached end of trace for Core: 0 Repeating trace: /scratch/vsgirelli/ChampSim/trabalho_traces//454.calculix-104B.champsimtrace.xz
xz: /scratch/vsgirelli/ChampSim/trabalho_traces//454.calculix-104B.champsimtrace.xz: Unexpected end of input
*** Reached end of trace for Core: 0 Repeating trace: /scratch/vsgirelli/ChampSim/trabalho_traces//454.calculix-104B.champsimtrace.xz
xz: /scratch/vsgirelli/ChampSim/trabalho_traces//454.calculix-104B.champsimtrace.xz: Unexpected end of input
*** Reached end of trace for Core: 0 Repeating trace: /scratch/vsgirelli/ChampSim/trabalho_traces//454.calculix-104B.champsimtrace.xz
xz: /scratch/vsgirelli/ChampSim/trabalho_traces//454.calculix-104B.champsimtrace.xz: Unexpected end of input
*** Reached end of trace for Core: 0 Repeating trace: /scratch/vsgirelli/ChampSim/trabalho_traces//454.calculix-104B.champsimtrace.xz
xz: /scratch/vsgirelli/ChampSim/trabalho_traces//454.calculix-104B.champsimtrace.xz: Unexpected end of input
*** Reached end of trace for Core: 0 Repeating trace: /scratch/vsgirelli/ChampSim/trabalho_traces//454.calculix-104B.champsimtrace.xz
xz: /scratch/vsgirelli/ChampSim/trabalho_traces//454.calculix-104B.champsimtrace.xz: Unexpected end of input
*** Reached end of trace for Core: 0 Repeating trace: /scratch/vsgirelli/ChampSim/trabalho_traces//454.calculix-104B.champsimtrace.xz
xz: /scratch/vsgirelli/ChampSim/trabalho_traces//454.calculix-104B.champsimtrace.xz: Unexpected end of input
*** Reached end of trace for Core: 0 Repeating trace: /scratch/vsgirelli/ChampSim/trabalho_traces//454.calculix-104B.champsimtrace.xz
xz: /scratch/vsgirelli/ChampSim/trabalho_traces//454.calculix-104B.champsimtrace.xz: Unexpected end of input
*** Reached end of trace for Core: 0 Repeating trace: /scratch/vsgirelli/ChampSim/trabalho_traces//454.calculix-104B.champsimtrace.xz
xz: /scratch/vsgirelli/ChampSim/trabalho_traces//454.calculix-104B.champsimtrace.xz: Unexpected end of input
*** Reached end of trace for Core: 0 Repeating trace: /scratch/vsgirelli/ChampSim/trabalho_traces//454.calculix-104B.champsimtrace.xz
Heartbeat CPU 0 instructions: 110000000 cycles: 90221439 heartbeat IPC: 1.18917 cumulative IPC: 1.18931 (Simulation time: 0 hr 3 min 8 sec) 
xz: /scratch/vsgirelli/ChampSim/trabalho_traces//454.calculix-104B.champsimtrace.xz: Unexpected end of input
*** Reached end of trace for Core: 0 Repeating trace: /scratch/vsgirelli/ChampSim/trabalho_traces//454.calculix-104B.champsimtrace.xz
xz: /scratch/vsgirelli/ChampSim/trabalho_traces//454.calculix-104B.champsimtrace.xz: Unexpected end of input
*** Reached end of trace for Core: 0 Repeating trace: /scratch/vsgirelli/ChampSim/trabalho_traces//454.calculix-104B.champsimtrace.xz
xz: /scratch/vsgirelli/ChampSim/trabalho_traces//454.calculix-104B.champsimtrace.xz: Unexpected end of input
*** Reached end of trace for Core: 0 Repeating trace: /scratch/vsgirelli/ChampSim/trabalho_traces//454.calculix-104B.champsimtrace.xz
xz: /scratch/vsgirelli/ChampSim/trabalho_traces//454.calculix-104B.champsimtrace.xz: Unexpected end of input
*** Reached end of trace for Core: 0 Repeating trace: /scratch/vsgirelli/ChampSim/trabalho_traces//454.calculix-104B.champsimtrace.xz
xz: /scratch/vsgirelli/ChampSim/trabalho_traces//454.calculix-104B.champsimtrace.xz: Unexpected end of input
*** Reached end of trace for Core: 0 Repeating trace: /scratch/vsgirelli/ChampSim/trabalho_traces//454.calculix-104B.champsimtrace.xz
xz: /scratch/vsgirelli/ChampSim/trabalho_traces//454.calculix-104B.champsimtrace.xz: Unexpected end of input
*** Reached end of trace for Core: 0 Repeating trace: /scratch/vsgirelli/ChampSim/trabalho_traces//454.calculix-104B.champsimtrace.xz
xz: /scratch/vsgirelli/ChampSim/trabalho_traces//454.calculix-104B.champsimtrace.xz: Unexpected end of input
*** Reached end of trace for Core: 0 Repeating trace: /scratch/vsgirelli/ChampSim/trabalho_traces//454.calculix-104B.champsimtrace.xz
xz: /scratch/vsgirelli/ChampSim/trabalho_traces//454.calculix-104B.champsimtrace.xz: Unexpected end of input
*** Reached end of trace for Core: 0 Repeating trace: /scratch/vsgirelli/ChampSim/trabalho_traces//454.calculix-104B.champsimtrace.xz
xz: /scratch/vsgirelli/ChampSim/trabalho_traces//454.calculix-104B.champsimtrace.xz: Unexpected end of input
*** Reached end of trace for Core: 0 Repeating trace: /scratch/vsgirelli/ChampSim/trabalho_traces//454.calculix-104B.champsimtrace.xz
xz: /scratch/vsgirelli/ChampSim/trabalho_traces//454.calculix-104B.champsimtrace.xz: Unexpected end of input
*** Reached end of trace for Core: 0 Repeating trace: /scratch/vsgirelli/ChampSim/trabalho_traces//454.calculix-104B.champsimtrace.xz
xz: /scratch/vsgirelli/ChampSim/trabalho_traces//454.calculix-104B.champsimtrace.xz: Unexpected end of input
*** Reached end of trace for Core: 0 Repeating trace: /scratch/vsgirelli/ChampSim/trabalho_traces//454.calculix-104B.champsimtrace.xz
xz: /scratch/vsgirelli/ChampSim/trabalho_traces//454.calculix-104B.champsimtrace.xz: Unexpected end of input
*** Reached end of trace for Core: 0 Repeating trace: /scratch/vsgirelli/ChampSim/trabalho_traces//454.calculix-104B.champsimtrace.xz
xz: /scratch/vsgirelli/ChampSim/trabalho_traces//454.calculix-104B.champsimtrace.xz: Unexpected end of input
*** Reached end of trace for Core: 0 Repeating trace: /scratch/vsgirelli/ChampSim/trabalho_traces//454.calculix-104B.champsimtrace.xz
xz: /scratch/vsgirelli/ChampSim/trabalho_traces//454.calculix-104B.champsimtrace.xz: Unexpected end of input
*** Reached end of trace for Core: 0 Repeating trace: /scratch/vsgirelli/ChampSim/trabalho_traces//454.calculix-104B.champsimtrace.xz
xz: /scratch/vsgirelli/ChampSim/trabalho_traces//454.calculix-104B.champsimtrace.xz: Unexpected end of input
*** Reached end of trace for Core: 0 Repeating trace: /scratch/vsgirelli/ChampSim/trabalho_traces//454.calculix-104B.champsimtrace.xz
Heartbeat CPU 0 instructions: 120000000 cycles: 98629043 heartbeat IPC: 1.1894 cumulative IPC: 1.18932 (Simulation time: 0 hr 3 min 25 sec) 
xz: /scratch/vsgirelli/ChampSim/trabalho_traces//454.calculix-104B.champsimtrace.xz: Unexpected end of input
*** Reached end of trace for Core: 0 Repeating trace: /scratch/vsgirelli/ChampSim/trabalho_traces//454.calculix-104B.champsimtrace.xz
xz: /scratch/vsgirelli/ChampSim/trabalho_traces//454.calculix-104B.champsimtrace.xz: Unexpected end of input
*** Reached end of trace for Core: 0 Repeating trace: /scratch/vsgirelli/ChampSim/trabalho_traces//454.calculix-104B.champsimtrace.xz
xz: /scratch/vsgirelli/ChampSim/trabalho_traces//454.calculix-104B.champsimtrace.xz: Unexpected end of input
*** Reached end of trace for Core: 0 Repeating trace: /scratch/vsgirelli/ChampSim/trabalho_traces//454.calculix-104B.champsimtrace.xz
xz: /scratch/vsgirelli/ChampSim/trabalho_traces//454.calculix-104B.champsimtrace.xz: Unexpected end of input
*** Reached end of trace for Core: 0 Repeating trace: /scratch/vsgirelli/ChampSim/trabalho_traces//454.calculix-104B.champsimtrace.xz
xz: /scratch/vsgirelli/ChampSim/trabalho_traces//454.calculix-104B.champsimtrace.xz: Unexpected end of input
*** Reached end of trace for Core: 0 Repeating trace: /scratch/vsgirelli/ChampSim/trabalho_traces//454.calculix-104B.champsimtrace.xz
xz: /scratch/vsgirelli/ChampSim/trabalho_traces//454.calculix-104B.champsimtrace.xz: Unexpected end of input
*** Reached end of trace for Core: 0 Repeating trace: /scratch/vsgirelli/ChampSim/trabalho_traces//454.calculix-104B.champsimtrace.xz
xz: /scratch/vsgirelli/ChampSim/trabalho_traces//454.calculix-104B.champsimtrace.xz: Unexpected end of input
*** Reached end of trace for Core: 0 Repeating trace: /scratch/vsgirelli/ChampSim/trabalho_traces//454.calculix-104B.champsimtrace.xz
xz: /scratch/vsgirelli/ChampSim/trabalho_traces//454.calculix-104B.champsimtrace.xz: Unexpected end of input
*** Reached end of trace for Core: 0 Repeating trace: /scratch/vsgirelli/ChampSim/trabalho_traces//454.calculix-104B.champsimtrace.xz
xz: /scratch/vsgirelli/ChampSim/trabalho_traces//454.calculix-104B.champsimtrace.xz: Unexpected end of input
*** Reached end of trace for Core: 0 Repeating trace: /scratch/vsgirelli/ChampSim/trabalho_traces//454.calculix-104B.champsimtrace.xz
xz: /scratch/vsgirelli/ChampSim/trabalho_traces//454.calculix-104B.champsimtrace.xz: Unexpected end of input
*** Reached end of trace for Core: 0 Repeating trace: /scratch/vsgirelli/ChampSim/trabalho_traces//454.calculix-104B.champsimtrace.xz
xz: /scratch/vsgirelli/ChampSim/trabalho_traces//454.calculix-104B.champsimtrace.xz: Unexpected end of input
*** Reached end of trace for Core: 0 Repeating trace: /scratch/vsgirelli/ChampSim/trabalho_traces//454.calculix-104B.champsimtrace.xz
xz: /scratch/vsgirelli/ChampSim/trabalho_traces//454.calculix-104B.champsimtrace.xz: Unexpected end of input
*** Reached end of trace for Core: 0 Repeating trace: /scratch/vsgirelli/ChampSim/trabalho_traces//454.calculix-104B.champsimtrace.xz
xz: /scratch/vsgirelli/ChampSim/trabalho_traces//454.calculix-104B.champsimtrace.xz: Unexpected end of input
*** Reached end of trace for Core: 0 Repeating trace: /scratch/vsgirelli/ChampSim/trabalho_traces//454.calculix-104B.champsimtrace.xz
xz: /scratch/vsgirelli/ChampSim/trabalho_traces//454.calculix-104B.champsimtrace.xz: Unexpected end of input
*** Reached end of trace for Core: 0 Repeating trace: /scratch/vsgirelli/ChampSim/trabalho_traces//454.calculix-104B.champsimtrace.xz
Heartbeat CPU 0 instructions: 130000001 cycles: 107037358 heartbeat IPC: 1.1893 cumulative IPC: 1.18932 (Simulation time: 0 hr 3 min 41 sec) 
xz: /scratch/vsgirelli/ChampSim/trabalho_traces//454.calculix-104B.champsimtrace.xz: Unexpected end of input
*** Reached end of trace for Core: 0 Repeating trace: /scratch/vsgirelli/ChampSim/trabalho_traces//454.calculix-104B.champsimtrace.xz
xz: /scratch/vsgirelli/ChampSim/trabalho_traces//454.calculix-104B.champsimtrace.xz: Unexpected end of input
*** Reached end of trace for Core: 0 Repeating trace: /scratch/vsgirelli/ChampSim/trabalho_traces//454.calculix-104B.champsimtrace.xz
xz: /scratch/vsgirelli/ChampSim/trabalho_traces//454.calculix-104B.champsimtrace.xz: Unexpected end of input
*** Reached end of trace for Core: 0 Repeating trace: /scratch/vsgirelli/ChampSim/trabalho_traces//454.calculix-104B.champsimtrace.xz
xz: /scratch/vsgirelli/ChampSim/trabalho_traces//454.calculix-104B.champsimtrace.xz: Unexpected end of input
*** Reached end of trace for Core: 0 Repeating trace: /scratch/vsgirelli/ChampSim/trabalho_traces//454.calculix-104B.champsimtrace.xz
xz: /scratch/vsgirelli/ChampSim/trabalho_traces//454.calculix-104B.champsimtrace.xz: Unexpected end of input
*** Reached end of trace for Core: 0 Repeating trace: /scratch/vsgirelli/ChampSim/trabalho_traces//454.calculix-104B.champsimtrace.xz
xz: /scratch/vsgirelli/ChampSim/trabalho_traces//454.calculix-104B.champsimtrace.xz: Unexpected end of input
*** Reached end of trace for Core: 0 Repeating trace: /scratch/vsgirelli/ChampSim/trabalho_traces//454.calculix-104B.champsimtrace.xz
xz: /scratch/vsgirelli/ChampSim/trabalho_traces//454.calculix-104B.champsimtrace.xz: Unexpected end of input
*** Reached end of trace for Core: 0 Repeating trace: /scratch/vsgirelli/ChampSim/trabalho_traces//454.calculix-104B.champsimtrace.xz
xz: /scratch/vsgirelli/ChampSim/trabalho_traces//454.calculix-104B.champsimtrace.xz: Unexpected end of input
*** Reached end of trace for Core: 0 Repeating trace: /scratch/vsgirelli/ChampSim/trabalho_traces//454.calculix-104B.champsimtrace.xz
xz: /scratch/vsgirelli/ChampSim/trabalho_traces//454.calculix-104B.champsimtrace.xz: Unexpected end of input
*** Reached end of trace for Core: 0 Repeating trace: /scratch/vsgirelli/ChampSim/trabalho_traces//454.calculix-104B.champsimtrace.xz
xz: /scratch/vsgirelli/ChampSim/trabalho_traces//454.calculix-104B.champsimtrace.xz: Unexpected end of input
*** Reached end of trace for Core: 0 Repeating trace: /scratch/vsgirelli/ChampSim/trabalho_traces//454.calculix-104B.champsimtrace.xz
xz: /scratch/vsgirelli/ChampSim/trabalho_traces//454.calculix-104B.champsimtrace.xz: Unexpected end of input
*** Reached end of trace for Core: 0 Repeating trace: /scratch/vsgirelli/ChampSim/trabalho_traces//454.calculix-104B.champsimtrace.xz
xz: /scratch/vsgirelli/ChampSim/trabalho_traces//454.calculix-104B.champsimtrace.xz: Unexpected end of input
*** Reached end of trace for Core: 0 Repeating trace: /scratch/vsgirelli/ChampSim/trabalho_traces//454.calculix-104B.champsimtrace.xz
xz: /scratch/vsgirelli/ChampSim/trabalho_traces//454.calculix-104B.champsimtrace.xz: Unexpected end of input
*** Reached end of trace for Core: 0 Repeating trace: /scratch/vsgirelli/ChampSim/trabalho_traces//454.calculix-104B.champsimtrace.xz
xz: /scratch/vsgirelli/ChampSim/trabalho_traces//454.calculix-104B.champsimtrace.xz: Unexpected end of input
*** Reached end of trace for Core: 0 Repeating trace: /scratch/vsgirelli/ChampSim/trabalho_traces//454.calculix-104B.champsimtrace.xz
Heartbeat CPU 0 instructions: 140000000 cycles: 115446124 heartbeat IPC: 1.18923 cumulative IPC: 1.18931 (Simulation time: 0 hr 3 min 58 sec) 
xz: /scratch/vsgirelli/ChampSim/trabalho_traces//454.calculix-104B.champsimtrace.xz: Unexpected end of input
*** Reached end of trace for Core: 0 Repeating trace: /scratch/vsgirelli/ChampSim/trabalho_traces//454.calculix-104B.champsimtrace.xz
xz: /scratch/vsgirelli/ChampSim/trabalho_traces//454.calculix-104B.champsimtrace.xz: Unexpected end of input
*** Reached end of trace for Core: 0 Repeating trace: /scratch/vsgirelli/ChampSim/trabalho_traces//454.calculix-104B.champsimtrace.xz
xz: /scratch/vsgirelli/ChampSim/trabalho_traces//454.calculix-104B.champsimtrace.xz: Unexpected end of input
*** Reached end of trace for Core: 0 Repeating trace: /scratch/vsgirelli/ChampSim/trabalho_traces//454.calculix-104B.champsimtrace.xz
xz: /scratch/vsgirelli/ChampSim/trabalho_traces//454.calculix-104B.champsimtrace.xz: Unexpected end of input
*** Reached end of trace for Core: 0 Repeating trace: /scratch/vsgirelli/ChampSim/trabalho_traces//454.calculix-104B.champsimtrace.xz
xz: /scratch/vsgirelli/ChampSim/trabalho_traces//454.calculix-104B.champsimtrace.xz: Unexpected end of input
*** Reached end of trace for Core: 0 Repeating trace: /scratch/vsgirelli/ChampSim/trabalho_traces//454.calculix-104B.champsimtrace.xz
xz: /scratch/vsgirelli/ChampSim/trabalho_traces//454.calculix-104B.champsimtrace.xz: Unexpected end of input
*** Reached end of trace for Core: 0 Repeating trace: /scratch/vsgirelli/ChampSim/trabalho_traces//454.calculix-104B.champsimtrace.xz
xz: /scratch/vsgirelli/ChampSim/trabalho_traces//454.calculix-104B.champsimtrace.xz: Unexpected end of input
*** Reached end of trace for Core: 0 Repeating trace: /scratch/vsgirelli/ChampSim/trabalho_traces//454.calculix-104B.champsimtrace.xz
xz: /scratch/vsgirelli/ChampSim/trabalho_traces//454.calculix-104B.champsimtrace.xz: Unexpected end of input
*** Reached end of trace for Core: 0 Repeating trace: /scratch/vsgirelli/ChampSim/trabalho_traces//454.calculix-104B.champsimtrace.xz
xz: /scratch/vsgirelli/ChampSim/trabalho_traces//454.calculix-104B.champsimtrace.xz: Unexpected end of input
*** Reached end of trace for Core: 0 Repeating trace: /scratch/vsgirelli/ChampSim/trabalho_traces//454.calculix-104B.champsimtrace.xz
xz: /scratch/vsgirelli/ChampSim/trabalho_traces//454.calculix-104B.champsimtrace.xz: Unexpected end of input
*** Reached end of trace for Core: 0 Repeating trace: /scratch/vsgirelli/ChampSim/trabalho_traces//454.calculix-104B.champsimtrace.xz
xz: /scratch/vsgirelli/ChampSim/trabalho_traces//454.calculix-104B.champsimtrace.xz: Unexpected end of input
*** Reached end of trace for Core: 0 Repeating trace: /scratch/vsgirelli/ChampSim/trabalho_traces//454.calculix-104B.champsimtrace.xz
xz: /scratch/vsgirelli/ChampSim/trabalho_traces//454.calculix-104B.champsimtrace.xz: Unexpected end of input
*** Reached end of trace for Core: 0 Repeating trace: /scratch/vsgirelli/ChampSim/trabalho_traces//454.calculix-104B.champsimtrace.xz
xz: /scratch/vsgirelli/ChampSim/trabalho_traces//454.calculix-104B.champsimtrace.xz: Unexpected end of input
*** Reached end of trace for Core: 0 Repeating trace: /scratch/vsgirelli/ChampSim/trabalho_traces//454.calculix-104B.champsimtrace.xz
xz: /scratch/vsgirelli/ChampSim/trabalho_traces//454.calculix-104B.champsimtrace.xz: Unexpected end of input
*** Reached end of trace for Core: 0 Repeating trace: /scratch/vsgirelli/ChampSim/trabalho_traces//454.calculix-104B.champsimtrace.xz
Heartbeat CPU 0 instructions: 150000001 cycles: 123853709 heartbeat IPC: 1.1894 cumulative IPC: 1.18932 (Simulation time: 0 hr 4 min 14 sec) 
xz: /scratch/vsgirelli/ChampSim/trabalho_traces//454.calculix-104B.champsimtrace.xz: Unexpected end of input
*** Reached end of trace for Core: 0 Repeating trace: /scratch/vsgirelli/ChampSim/trabalho_traces//454.calculix-104B.champsimtrace.xz
xz: /scratch/vsgirelli/ChampSim/trabalho_traces//454.calculix-104B.champsimtrace.xz: Unexpected end of input
*** Reached end of trace for Core: 0 Repeating trace: /scratch/vsgirelli/ChampSim/trabalho_traces//454.calculix-104B.champsimtrace.xz
xz: /scratch/vsgirelli/ChampSim/trabalho_traces//454.calculix-104B.champsimtrace.xz: Unexpected end of input
*** Reached end of trace for Core: 0 Repeating trace: /scratch/vsgirelli/ChampSim/trabalho_traces//454.calculix-104B.champsimtrace.xz
xz: /scratch/vsgirelli/ChampSim/trabalho_traces//454.calculix-104B.champsimtrace.xz: Unexpected end of input
*** Reached end of trace for Core: 0 Repeating trace: /scratch/vsgirelli/ChampSim/trabalho_traces//454.calculix-104B.champsimtrace.xz
xz: /scratch/vsgirelli/ChampSim/trabalho_traces//454.calculix-104B.champsimtrace.xz: Unexpected end of input
*** Reached end of trace for Core: 0 Repeating trace: /scratch/vsgirelli/ChampSim/trabalho_traces//454.calculix-104B.champsimtrace.xz
xz: /scratch/vsgirelli/ChampSim/trabalho_traces//454.calculix-104B.champsimtrace.xz: Unexpected end of input
*** Reached end of trace for Core: 0 Repeating trace: /scratch/vsgirelli/ChampSim/trabalho_traces//454.calculix-104B.champsimtrace.xz
xz: /scratch/vsgirelli/ChampSim/trabalho_traces//454.calculix-104B.champsimtrace.xz: Unexpected end of input
*** Reached end of trace for Core: 0 Repeating trace: /scratch/vsgirelli/ChampSim/trabalho_traces//454.calculix-104B.champsimtrace.xz
xz: /scratch/vsgirelli/ChampSim/trabalho_traces//454.calculix-104B.champsimtrace.xz: Unexpected end of input
*** Reached end of trace for Core: 0 Repeating trace: /scratch/vsgirelli/ChampSim/trabalho_traces//454.calculix-104B.champsimtrace.xz
xz: /scratch/vsgirelli/ChampSim/trabalho_traces//454.calculix-104B.champsimtrace.xz: Unexpected end of input
*** Reached end of trace for Core: 0 Repeating trace: /scratch/vsgirelli/ChampSim/trabalho_traces//454.calculix-104B.champsimtrace.xz
xz: /scratch/vsgirelli/ChampSim/trabalho_traces//454.calculix-104B.champsimtrace.xz: Unexpected end of input
*** Reached end of trace for Core: 0 Repeating trace: /scratch/vsgirelli/ChampSim/trabalho_traces//454.calculix-104B.champsimtrace.xz
xz: /scratch/vsgirelli/ChampSim/trabalho_traces//454.calculix-104B.champsimtrace.xz: Unexpected end of input
*** Reached end of trace for Core: 0 Repeating trace: /scratch/vsgirelli/ChampSim/trabalho_traces//454.calculix-104B.champsimtrace.xz
xz: /scratch/vsgirelli/ChampSim/trabalho_traces//454.calculix-104B.champsimtrace.xz: Unexpected end of input
*** Reached end of trace for Core: 0 Repeating trace: /scratch/vsgirelli/ChampSim/trabalho_traces//454.calculix-104B.champsimtrace.xz
xz: /scratch/vsgirelli/ChampSim/trabalho_traces//454.calculix-104B.champsimtrace.xz: Unexpected end of input
*** Reached end of trace for Core: 0 Repeating trace: /scratch/vsgirelli/ChampSim/trabalho_traces//454.calculix-104B.champsimtrace.xz
xz: /scratch/vsgirelli/ChampSim/trabalho_traces//454.calculix-104B.champsimtrace.xz: Unexpected end of input
*** Reached end of trace for Core: 0 Repeating trace: /scratch/vsgirelli/ChampSim/trabalho_traces//454.calculix-104B.champsimtrace.xz
Heartbeat CPU 0 instructions: 160000003 cycles: 132263042 heartbeat IPC: 1.18916 cumulative IPC: 1.18931 (Simulation time: 0 hr 4 min 31 sec) 
xz: /scratch/vsgirelli/ChampSim/trabalho_traces//454.calculix-104B.champsimtrace.xz: Unexpected end of input
*** Reached end of trace for Core: 0 Repeating trace: /scratch/vsgirelli/ChampSim/trabalho_traces//454.calculix-104B.champsimtrace.xz
xz: /scratch/vsgirelli/ChampSim/trabalho_traces//454.calculix-104B.champsimtrace.xz: Unexpected end of input
*** Reached end of trace for Core: 0 Repeating trace: /scratch/vsgirelli/ChampSim/trabalho_traces//454.calculix-104B.champsimtrace.xz
xz: /scratch/vsgirelli/ChampSim/trabalho_traces//454.calculix-104B.champsimtrace.xz: Unexpected end of input
*** Reached end of trace for Core: 0 Repeating trace: /scratch/vsgirelli/ChampSim/trabalho_traces//454.calculix-104B.champsimtrace.xz
xz: /scratch/vsgirelli/ChampSim/trabalho_traces//454.calculix-104B.champsimtrace.xz: Unexpected end of input
*** Reached end of trace for Core: 0 Repeating trace: /scratch/vsgirelli/ChampSim/trabalho_traces//454.calculix-104B.champsimtrace.xz
xz: /scratch/vsgirelli/ChampSim/trabalho_traces//454.calculix-104B.champsimtrace.xz: Unexpected end of input
*** Reached end of trace for Core: 0 Repeating trace: /scratch/vsgirelli/ChampSim/trabalho_traces//454.calculix-104B.champsimtrace.xz
xz: /scratch/vsgirelli/ChampSim/trabalho_traces//454.calculix-104B.champsimtrace.xz: Unexpected end of input
*** Reached end of trace for Core: 0 Repeating trace: /scratch/vsgirelli/ChampSim/trabalho_traces//454.calculix-104B.champsimtrace.xz
xz: /scratch/vsgirelli/ChampSim/trabalho_traces//454.calculix-104B.champsimtrace.xz: Unexpected end of input
*** Reached end of trace for Core: 0 Repeating trace: /scratch/vsgirelli/ChampSim/trabalho_traces//454.calculix-104B.champsimtrace.xz
xz: /scratch/vsgirelli/ChampSim/trabalho_traces//454.calculix-104B.champsimtrace.xz: Unexpected end of input
*** Reached end of trace for Core: 0 Repeating trace: /scratch/vsgirelli/ChampSim/trabalho_traces//454.calculix-104B.champsimtrace.xz
xz: /scratch/vsgirelli/ChampSim/trabalho_traces//454.calculix-104B.champsimtrace.xz: Unexpected end of input
*** Reached end of trace for Core: 0 Repeating trace: /scratch/vsgirelli/ChampSim/trabalho_traces//454.calculix-104B.champsimtrace.xz
xz: /scratch/vsgirelli/ChampSim/trabalho_traces//454.calculix-104B.champsimtrace.xz: Unexpected end of input
*** Reached end of trace for Core: 0 Repeating trace: /scratch/vsgirelli/ChampSim/trabalho_traces//454.calculix-104B.champsimtrace.xz
xz: /scratch/vsgirelli/ChampSim/trabalho_traces//454.calculix-104B.champsimtrace.xz: Unexpected end of input
*** Reached end of trace for Core: 0 Repeating trace: /scratch/vsgirelli/ChampSim/trabalho_traces//454.calculix-104B.champsimtrace.xz
xz: /scratch/vsgirelli/ChampSim/trabalho_traces//454.calculix-104B.champsimtrace.xz: Unexpected end of input
*** Reached end of trace for Core: 0 Repeating trace: /scratch/vsgirelli/ChampSim/trabalho_traces//454.calculix-104B.champsimtrace.xz
xz: /scratch/vsgirelli/ChampSim/trabalho_traces//454.calculix-104B.champsimtrace.xz: Unexpected end of input
*** Reached end of trace for Core: 0 Repeating trace: /scratch/vsgirelli/ChampSim/trabalho_traces//454.calculix-104B.champsimtrace.xz
xz: /scratch/vsgirelli/ChampSim/trabalho_traces//454.calculix-104B.champsimtrace.xz: Unexpected end of input
*** Reached end of trace for Core: 0 Repeating trace: /scratch/vsgirelli/ChampSim/trabalho_traces//454.calculix-104B.champsimtrace.xz
Heartbeat CPU 0 instructions: 170000000 cycles: 140670115 heartbeat IPC: 1.18947 cumulative IPC: 1.18932 (Simulation time: 0 hr 4 min 48 sec) 
xz: /scratch/vsgirelli/ChampSim/trabalho_traces//454.calculix-104B.champsimtrace.xz: Unexpected end of input
*** Reached end of trace for Core: 0 Repeating trace: /scratch/vsgirelli/ChampSim/trabalho_traces//454.calculix-104B.champsimtrace.xz
xz: /scratch/vsgirelli/ChampSim/trabalho_traces//454.calculix-104B.champsimtrace.xz: Unexpected end of input
*** Reached end of trace for Core: 0 Repeating trace: /scratch/vsgirelli/ChampSim/trabalho_traces//454.calculix-104B.champsimtrace.xz
xz: /scratch/vsgirelli/ChampSim/trabalho_traces//454.calculix-104B.champsimtrace.xz: Unexpected end of input
*** Reached end of trace for Core: 0 Repeating trace: /scratch/vsgirelli/ChampSim/trabalho_traces//454.calculix-104B.champsimtrace.xz
xz: /scratch/vsgirelli/ChampSim/trabalho_traces//454.calculix-104B.champsimtrace.xz: Unexpected end of input
*** Reached end of trace for Core: 0 Repeating trace: /scratch/vsgirelli/ChampSim/trabalho_traces//454.calculix-104B.champsimtrace.xz
xz: /scratch/vsgirelli/ChampSim/trabalho_traces//454.calculix-104B.champsimtrace.xz: Unexpected end of input
*** Reached end of trace for Core: 0 Repeating trace: /scratch/vsgirelli/ChampSim/trabalho_traces//454.calculix-104B.champsimtrace.xz
xz: /scratch/vsgirelli/ChampSim/trabalho_traces//454.calculix-104B.champsimtrace.xz: Unexpected end of input
*** Reached end of trace for Core: 0 Repeating trace: /scratch/vsgirelli/ChampSim/trabalho_traces//454.calculix-104B.champsimtrace.xz
xz: /scratch/vsgirelli/ChampSim/trabalho_traces//454.calculix-104B.champsimtrace.xz: Unexpected end of input
*** Reached end of trace for Core: 0 Repeating trace: /scratch/vsgirelli/ChampSim/trabalho_traces//454.calculix-104B.champsimtrace.xz
xz: /scratch/vsgirelli/ChampSim/trabalho_traces//454.calculix-104B.champsimtrace.xz: Unexpected end of input
*** Reached end of trace for Core: 0 Repeating trace: /scratch/vsgirelli/ChampSim/trabalho_traces//454.calculix-104B.champsimtrace.xz
xz: /scratch/vsgirelli/ChampSim/trabalho_traces//454.calculix-104B.champsimtrace.xz: Unexpected end of input
*** Reached end of trace for Core: 0 Repeating trace: /scratch/vsgirelli/ChampSim/trabalho_traces//454.calculix-104B.champsimtrace.xz
xz: /scratch/vsgirelli/ChampSim/trabalho_traces//454.calculix-104B.champsimtrace.xz: Unexpected end of input
*** Reached end of trace for Core: 0 Repeating trace: /scratch/vsgirelli/ChampSim/trabalho_traces//454.calculix-104B.champsimtrace.xz
xz: /scratch/vsgirelli/ChampSim/trabalho_traces//454.calculix-104B.champsimtrace.xz: Unexpected end of input
*** Reached end of trace for Core: 0 Repeating trace: /scratch/vsgirelli/ChampSim/trabalho_traces//454.calculix-104B.champsimtrace.xz
xz: /scratch/vsgirelli/ChampSim/trabalho_traces//454.calculix-104B.champsimtrace.xz: Unexpected end of input
*** Reached end of trace for Core: 0 Repeating trace: /scratch/vsgirelli/ChampSim/trabalho_traces//454.calculix-104B.champsimtrace.xz
xz: /scratch/vsgirelli/ChampSim/trabalho_traces//454.calculix-104B.champsimtrace.xz: Unexpected end of input
*** Reached end of trace for Core: 0 Repeating trace: /scratch/vsgirelli/ChampSim/trabalho_traces//454.calculix-104B.champsimtrace.xz
xz: /scratch/vsgirelli/ChampSim/trabalho_traces//454.calculix-104B.champsimtrace.xz: Unexpected end of input
*** Reached end of trace for Core: 0 Repeating trace: /scratch/vsgirelli/ChampSim/trabalho_traces//454.calculix-104B.champsimtrace.xz
xz: /scratch/vsgirelli/ChampSim/trabalho_traces//454.calculix-104B.champsimtrace.xz: Unexpected end of input
*** Reached end of trace for Core: 0 Repeating trace: /scratch/vsgirelli/ChampSim/trabalho_traces//454.calculix-104B.champsimtrace.xz
Heartbeat CPU 0 instructions: 180000002 cycles: 149079129 heartbeat IPC: 1.1892 cumulative IPC: 1.18931 (Simulation time: 0 hr 5 min 4 sec) 
xz: /scratch/vsgirelli/ChampSim/trabalho_traces//454.calculix-104B.champsimtrace.xz: Unexpected end of input
*** Reached end of trace for Core: 0 Repeating trace: /scratch/vsgirelli/ChampSim/trabalho_traces//454.calculix-104B.champsimtrace.xz
xz: /scratch/vsgirelli/ChampSim/trabalho_traces//454.calculix-104B.champsimtrace.xz: Unexpected end of input
*** Reached end of trace for Core: 0 Repeating trace: /scratch/vsgirelli/ChampSim/trabalho_traces//454.calculix-104B.champsimtrace.xz
xz: /scratch/vsgirelli/ChampSim/trabalho_traces//454.calculix-104B.champsimtrace.xz: Unexpected end of input
*** Reached end of trace for Core: 0 Repeating trace: /scratch/vsgirelli/ChampSim/trabalho_traces//454.calculix-104B.champsimtrace.xz
xz: /scratch/vsgirelli/ChampSim/trabalho_traces//454.calculix-104B.champsimtrace.xz: Unexpected end of input
*** Reached end of trace for Core: 0 Repeating trace: /scratch/vsgirelli/ChampSim/trabalho_traces//454.calculix-104B.champsimtrace.xz
xz: /scratch/vsgirelli/ChampSim/trabalho_traces//454.calculix-104B.champsimtrace.xz: Unexpected end of input
*** Reached end of trace for Core: 0 Repeating trace: /scratch/vsgirelli/ChampSim/trabalho_traces//454.calculix-104B.champsimtrace.xz
xz: /scratch/vsgirelli/ChampSim/trabalho_traces//454.calculix-104B.champsimtrace.xz: Unexpected end of input
*** Reached end of trace for Core: 0 Repeating trace: /scratch/vsgirelli/ChampSim/trabalho_traces//454.calculix-104B.champsimtrace.xz
xz: /scratch/vsgirelli/ChampSim/trabalho_traces//454.calculix-104B.champsimtrace.xz: Unexpected end of input
*** Reached end of trace for Core: 0 Repeating trace: /scratch/vsgirelli/ChampSim/trabalho_traces//454.calculix-104B.champsimtrace.xz
xz: /scratch/vsgirelli/ChampSim/trabalho_traces//454.calculix-104B.champsimtrace.xz: Unexpected end of input
*** Reached end of trace for Core: 0 Repeating trace: /scratch/vsgirelli/ChampSim/trabalho_traces//454.calculix-104B.champsimtrace.xz
xz: /scratch/vsgirelli/ChampSim/trabalho_traces//454.calculix-104B.champsimtrace.xz: Unexpected end of input
*** Reached end of trace for Core: 0 Repeating trace: /scratch/vsgirelli/ChampSim/trabalho_traces//454.calculix-104B.champsimtrace.xz
xz: /scratch/vsgirelli/ChampSim/trabalho_traces//454.calculix-104B.champsimtrace.xz: Unexpected end of input
*** Reached end of trace for Core: 0 Repeating trace: /scratch/vsgirelli/ChampSim/trabalho_traces//454.calculix-104B.champsimtrace.xz
xz: /scratch/vsgirelli/ChampSim/trabalho_traces//454.calculix-104B.champsimtrace.xz: Unexpected end of input
*** Reached end of trace for Core: 0 Repeating trace: /scratch/vsgirelli/ChampSim/trabalho_traces//454.calculix-104B.champsimtrace.xz
xz: /scratch/vsgirelli/ChampSim/trabalho_traces//454.calculix-104B.champsimtrace.xz: Unexpected end of input
*** Reached end of trace for Core: 0 Repeating trace: /scratch/vsgirelli/ChampSim/trabalho_traces//454.calculix-104B.champsimtrace.xz
xz: /scratch/vsgirelli/ChampSim/trabalho_traces//454.calculix-104B.champsimtrace.xz: Unexpected end of input
*** Reached end of trace for Core: 0 Repeating trace: /scratch/vsgirelli/ChampSim/trabalho_traces//454.calculix-104B.champsimtrace.xz
xz: /scratch/vsgirelli/ChampSim/trabalho_traces//454.calculix-104B.champsimtrace.xz: Unexpected end of input
*** Reached end of trace for Core: 0 Repeating trace: /scratch/vsgirelli/ChampSim/trabalho_traces//454.calculix-104B.champsimtrace.xz
Heartbeat CPU 0 instructions: 190000000 cycles: 157487131 heartbeat IPC: 1.18934 cumulative IPC: 1.18931 (Simulation time: 0 hr 5 min 21 sec) 
xz: /scratch/vsgirelli/ChampSim/trabalho_traces//454.calculix-104B.champsimtrace.xz: Unexpected end of input
*** Reached end of trace for Core: 0 Repeating trace: /scratch/vsgirelli/ChampSim/trabalho_traces//454.calculix-104B.champsimtrace.xz
xz: /scratch/vsgirelli/ChampSim/trabalho_traces//454.calculix-104B.champsimtrace.xz: Unexpected end of input
*** Reached end of trace for Core: 0 Repeating trace: /scratch/vsgirelli/ChampSim/trabalho_traces//454.calculix-104B.champsimtrace.xz
xz: /scratch/vsgirelli/ChampSim/trabalho_traces//454.calculix-104B.champsimtrace.xz: Unexpected end of input
*** Reached end of trace for Core: 0 Repeating trace: /scratch/vsgirelli/ChampSim/trabalho_traces//454.calculix-104B.champsimtrace.xz
xz: /scratch/vsgirelli/ChampSim/trabalho_traces//454.calculix-104B.champsimtrace.xz: Unexpected end of input
*** Reached end of trace for Core: 0 Repeating trace: /scratch/vsgirelli/ChampSim/trabalho_traces//454.calculix-104B.champsimtrace.xz
xz: /scratch/vsgirelli/ChampSim/trabalho_traces//454.calculix-104B.champsimtrace.xz: Unexpected end of input
*** Reached end of trace for Core: 0 Repeating trace: /scratch/vsgirelli/ChampSim/trabalho_traces//454.calculix-104B.champsimtrace.xz
xz: /scratch/vsgirelli/ChampSim/trabalho_traces//454.calculix-104B.champsimtrace.xz: Unexpected end of input
*** Reached end of trace for Core: 0 Repeating trace: /scratch/vsgirelli/ChampSim/trabalho_traces//454.calculix-104B.champsimtrace.xz
xz: /scratch/vsgirelli/ChampSim/trabalho_traces//454.calculix-104B.champsimtrace.xz: Unexpected end of input
*** Reached end of trace for Core: 0 Repeating trace: /scratch/vsgirelli/ChampSim/trabalho_traces//454.calculix-104B.champsimtrace.xz
xz: /scratch/vsgirelli/ChampSim/trabalho_traces//454.calculix-104B.champsimtrace.xz: Unexpected end of input
*** Reached end of trace for Core: 0 Repeating trace: /scratch/vsgirelli/ChampSim/trabalho_traces//454.calculix-104B.champsimtrace.xz
xz: /scratch/vsgirelli/ChampSim/trabalho_traces//454.calculix-104B.champsimtrace.xz: Unexpected end of input
*** Reached end of trace for Core: 0 Repeating trace: /scratch/vsgirelli/ChampSim/trabalho_traces//454.calculix-104B.champsimtrace.xz
xz: /scratch/vsgirelli/ChampSim/trabalho_traces//454.calculix-104B.champsimtrace.xz: Unexpected end of input
*** Reached end of trace for Core: 0 Repeating trace: /scratch/vsgirelli/ChampSim/trabalho_traces//454.calculix-104B.champsimtrace.xz
xz: /scratch/vsgirelli/ChampSim/trabalho_traces//454.calculix-104B.champsimtrace.xz: Unexpected end of input
*** Reached end of trace for Core: 0 Repeating trace: /scratch/vsgirelli/ChampSim/trabalho_traces//454.calculix-104B.champsimtrace.xz
xz: /scratch/vsgirelli/ChampSim/trabalho_traces//454.calculix-104B.champsimtrace.xz: Unexpected end of input
*** Reached end of trace for Core: 0 Repeating trace: /scratch/vsgirelli/ChampSim/trabalho_traces//454.calculix-104B.champsimtrace.xz
xz: /scratch/vsgirelli/ChampSim/trabalho_traces//454.calculix-104B.champsimtrace.xz: Unexpected end of input
*** Reached end of trace for Core: 0 Repeating trace: /scratch/vsgirelli/ChampSim/trabalho_traces//454.calculix-104B.champsimtrace.xz
xz: /scratch/vsgirelli/ChampSim/trabalho_traces//454.calculix-104B.champsimtrace.xz: Unexpected end of input
*** Reached end of trace for Core: 0 Repeating trace: /scratch/vsgirelli/ChampSim/trabalho_traces//454.calculix-104B.champsimtrace.xz
Heartbeat CPU 0 instructions: 200000003 cycles: 165895205 heartbeat IPC: 1.18933 cumulative IPC: 1.18931 (Simulation time: 0 hr 5 min 38 sec) 
xz: /scratch/vsgirelli/ChampSim/trabalho_traces//454.calculix-104B.champsimtrace.xz: Unexpected end of input
*** Reached end of trace for Core: 0 Repeating trace: /scratch/vsgirelli/ChampSim/trabalho_traces//454.calculix-104B.champsimtrace.xz
xz: /scratch/vsgirelli/ChampSim/trabalho_traces//454.calculix-104B.champsimtrace.xz: Unexpected end of input
*** Reached end of trace for Core: 0 Repeating trace: /scratch/vsgirelli/ChampSim/trabalho_traces//454.calculix-104B.champsimtrace.xz
xz: /scratch/vsgirelli/ChampSim/trabalho_traces//454.calculix-104B.champsimtrace.xz: Unexpected end of input
*** Reached end of trace for Core: 0 Repeating trace: /scratch/vsgirelli/ChampSim/trabalho_traces//454.calculix-104B.champsimtrace.xz
xz: /scratch/vsgirelli/ChampSim/trabalho_traces//454.calculix-104B.champsimtrace.xz: Unexpected end of input
*** Reached end of trace for Core: 0 Repeating trace: /scratch/vsgirelli/ChampSim/trabalho_traces//454.calculix-104B.champsimtrace.xz
xz: /scratch/vsgirelli/ChampSim/trabalho_traces//454.calculix-104B.champsimtrace.xz: Unexpected end of input
*** Reached end of trace for Core: 0 Repeating trace: /scratch/vsgirelli/ChampSim/trabalho_traces//454.calculix-104B.champsimtrace.xz
xz: /scratch/vsgirelli/ChampSim/trabalho_traces//454.calculix-104B.champsimtrace.xz: Unexpected end of input
*** Reached end of trace for Core: 0 Repeating trace: /scratch/vsgirelli/ChampSim/trabalho_traces//454.calculix-104B.champsimtrace.xz
xz: /scratch/vsgirelli/ChampSim/trabalho_traces//454.calculix-104B.champsimtrace.xz: Unexpected end of input
*** Reached end of trace for Core: 0 Repeating trace: /scratch/vsgirelli/ChampSim/trabalho_traces//454.calculix-104B.champsimtrace.xz
Finished CPU 0 instructions: 200000003 cycles: 168163441 cumulative IPC: 1.18932 (Simulation time: 0 hr 5 min 46 sec) 

ChampSim completed all CPUs

Region of Interest Statistics

CPU 0 cumulative IPC: 1.18932 instructions: 200000003 cycles: 168163441
L1D TOTAL     ACCESS:   51835669  HIT:   51835669  MISS:          0
L1D LOAD      ACCESS:   48125462  HIT:   48125462  MISS:          0
L1D RFO       ACCESS:    3710207  HIT:    3710207  MISS:          0
L1D PREFETCH  ACCESS:          0  HIT:          0  MISS:          0
L1D WRITEBACK ACCESS:          0  HIT:          0  MISS:          0
L1D PREFETCH  REQUESTED:          0  ISSUED:          0  USEFUL:          0  USELESS:          0
L1D AVERAGE MISS LATENCY: -nan cycles
L1I TOTAL     ACCESS:   38625789  HIT:   38625789  MISS:          0
L1I LOAD      ACCESS:   38625789  HIT:   38625789  MISS:          0
L1I RFO       ACCESS:          0  HIT:          0  MISS:          0
L1I PREFETCH  ACCESS:          0  HIT:          0  MISS:          0
L1I WRITEBACK ACCESS:          0  HIT:          0  MISS:          0
L1I PREFETCH  REQUESTED:          0  ISSUED:          0  USEFUL:          0  USELESS:          0
L1I AVERAGE MISS LATENCY: -nan cycles
L2C TOTAL     ACCESS:          0  HIT:          0  MISS:          0
L2C LOAD      ACCESS:          0  HIT:          0  MISS:          0
L2C RFO       ACCESS:          0  HIT:          0  MISS:          0
L2C PREFETCH  ACCESS:          0  HIT:          0  MISS:          0
L2C WRITEBACK ACCESS:          0  HIT:          0  MISS:          0
L2C PREFETCH  REQUESTED:          0  ISSUED:          0  USEFUL:          0  USELESS:          0
L2C AVERAGE MISS LATENCY: -nan cycles
LLC TOTAL     ACCESS:          0  HIT:          0  MISS:          0
LLC LOAD      ACCESS:          0  HIT:          0  MISS:          0
LLC RFO       ACCESS:          0  HIT:          0  MISS:          0
LLC PREFETCH  ACCESS:          0  HIT:          0  MISS:          0
LLC WRITEBACK ACCESS:          0  HIT:          0  MISS:          0
LLC PREFETCH  REQUESTED:          0  ISSUED:          0  USEFUL:          0  USELESS:          0
LLC AVERAGE MISS LATENCY: -nan cycles
Major fault: 0 Minor fault: 8

DRAM Statistics
 CHANNEL 0
 RQ ROW_BUFFER_HIT:          0  ROW_BUFFER_MISS:          0
 DBUS_CONGESTED:          0
 WQ ROW_BUFFER_HIT:          0  ROW_BUFFER_MISS:          0  FULL:          0

 AVG_CONGESTED_CYCLE: -

CPU 0 Branch Prediction Accuracy: 72.2027% MPKI: 25.047 Average ROB Occupancy at Mispredict: 27.654

Branch types
NOT_BRANCH: 181978469 90.9892%
BRANCH_DIRECT_JUMP: 2940839 1.47042%
BRANCH_INDIRECT: 0 0%
BRANCH_CONDITIONAL: 15080372 7.54019%
BRANCH_DIRECT_CALL: 0 0%
BRANCH_INDIRECT_CALL: 0 0%
BRANCH_RETURN: 0 0%
BRANCH_OTHER: 0 0%

