
*** ChampSim Multicore Out-of-Order Simulator ***

Warmup Instructions: 50000000
Simulation Instructions: 200000000
Number of CPUs: 1
LLC sets: 2048
LLC ways: 16
Off-chip DRAM Size: 4096 MB Channels: 1 Width: 64-bit Data Rate: 3200 MT/s

CPU 0 runs /scratch/vsgirelli/ChampSim/trabalho_traces//401.bzip2-38B.champsimtrace.xz
CPU 0 L1D next line prefetcher
L2C Signature Path Prefetcher
Initialize DRRIP state
Assign rand_sets[0]: 454  LLC: 2048
rand_sets[0]: 454
Assign rand_sets[1]: 1662  LLC: 2048
rand_sets[1]: 1662
Assign rand_sets[2]: 1921  LLC: 2048
rand_sets[2]: 1921
Assign rand_sets[3]: 1131  LLC: 2048
rand_sets[3]: 1131
Assign rand_sets[4]: 331  LLC: 2048
rand_sets[4]: 331
Assign rand_sets[5]: 1531  LLC: 2048
rand_sets[5]: 1531
Assign rand_sets[6]: 482  LLC: 2048
rand_sets[6]: 482
Assign rand_sets[7]: 1275  LLC: 2048
rand_sets[7]: 1275
Assign rand_sets[8]: 1876  LLC: 2048
rand_sets[8]: 1876
Assign rand_sets[9]: 2038  LLC: 2048
rand_sets[9]: 2038
Assign rand_sets[10]: 701  LLC: 2048
rand_sets[10]: 701
Assign rand_sets[11]: 479  LLC: 2048
rand_sets[11]: 479
Assign rand_sets[12]: 892  LLC: 2048
rand_sets[12]: 892
Assign rand_sets[13]: 1820  LLC: 2048
rand_sets[13]: 1820
Assign rand_sets[14]: 1505  LLC: 2048
rand_sets[14]: 1505
Assign rand_sets[15]: 1159  LLC: 2048
rand_sets[15]: 1159
Assign rand_sets[16]: 513  LLC: 2048
rand_sets[16]: 513
Assign rand_sets[17]: 703  LLC: 2048
rand_sets[17]: 703
Assign rand_sets[18]: 561  LLC: 2048
rand_sets[18]: 561
Assign rand_sets[19]: 990  LLC: 2048
rand_sets[19]: 990
Assign rand_sets[20]: 342  LLC: 2048
rand_sets[20]: 342
Assign rand_sets[21]: 882  LLC: 2048
rand_sets[21]: 882
Assign rand_sets[22]: 15  LLC: 2048
rand_sets[22]: 15
Assign rand_sets[23]: 71  LLC: 2048
rand_sets[23]: 71
Assign rand_sets[24]: 1127  LLC: 2048
rand_sets[24]: 1127
Assign rand_sets[25]: 1382  LLC: 2048
rand_sets[25]: 1382
Assign rand_sets[26]: 647  LLC: 2048
rand_sets[26]: 647
Assign rand_sets[27]: 857  LLC: 2048
rand_sets[27]: 857
Assign rand_sets[28]: 1450  LLC: 2048
rand_sets[28]: 1450
Assign rand_sets[29]: 1160  LLC: 2048
rand_sets[29]: 1160
Assign rand_sets[30]: 1852  LLC: 2048
rand_sets[30]: 1852
Assign rand_sets[31]: 1881  LLC: 2048
rand_sets[31]: 1881
Assign rand_sets[32]: 1770  LLC: 2048
rand_sets[32]: 1770
Assign rand_sets[33]: 1622  LLC: 2048
rand_sets[33]: 1622
Assign rand_sets[34]: 275  LLC: 2048
rand_sets[34]: 275
Assign rand_sets[35]: 635  LLC: 2048
rand_sets[35]: 635
Assign rand_sets[36]: 466  LLC: 2048
rand_sets[36]: 466
Assign rand_sets[37]: 1413  LLC: 2048
rand_sets[37]: 1413
Assign rand_sets[38]: 417  LLC: 2048
rand_sets[38]: 417
Assign rand_sets[39]: 472  LLC: 2048
rand_sets[39]: 472
Assign rand_sets[40]: 1340  LLC: 2048
rand_sets[40]: 1340
Assign rand_sets[41]: 852  LLC: 2048
rand_sets[41]: 852
Assign rand_sets[42]: 1365  LLC: 2048
rand_sets[42]: 1365
Assign rand_sets[43]: 47  LLC: 2048
rand_sets[43]: 47
Assign rand_sets[44]: 823  LLC: 2048
rand_sets[44]: 823
Assign rand_sets[45]: 686  LLC: 2048
rand_sets[45]: 686
Assign rand_sets[46]: 1637  LLC: 2048
rand_sets[46]: 1637
Assign rand_sets[47]: 1115  LLC: 2048
rand_sets[47]: 1115
Assign rand_sets[48]: 986  LLC: 2048
rand_sets[48]: 986
Assign rand_sets[49]: 258  LLC: 2048
rand_sets[49]: 258
Assign rand_sets[50]: 633  LLC: 2048
rand_sets[50]: 633
Assign rand_sets[51]: 920  LLC: 2048
rand_sets[51]: 920
Assign rand_sets[52]: 204  LLC: 2048
rand_sets[52]: 204
Assign rand_sets[53]: 227  LLC: 2048
rand_sets[53]: 227
Assign rand_sets[54]: 1818  LLC: 2048
rand_sets[54]: 1818
Assign rand_sets[55]: 886  LLC: 2048
rand_sets[55]: 886
Assign rand_sets[56]: 1422  LLC: 2048
rand_sets[56]: 1422
Assign rand_sets[57]: 607  LLC: 2048
rand_sets[57]: 607
Assign rand_sets[58]: 217  LLC: 2048
rand_sets[58]: 217
Assign rand_sets[59]: 1945  LLC: 2048
rand_sets[59]: 1945
Assign rand_sets[60]: 143  LLC: 2048
rand_sets[60]: 143
Assign rand_sets[61]: 1311  LLC: 2048
rand_sets[61]: 1311
Assign rand_sets[62]: 319  LLC: 2048
rand_sets[62]: 319
Assign rand_sets[63]: 1846  LLC: 2048
rand_sets[63]: 1846
LLC Next Line Prefetcher
Heartbeat CPU 0 instructions: 10000001 cycles: 2923773 heartbeat IPC: 3.42024 cumulative IPC: 3.42024 (Simulation time: 0 hr 0 min 19 sec) 
Heartbeat CPU 0 instructions: 20000003 cycles: 6823573 heartbeat IPC: 2.56423 cumulative IPC: 2.93102 (Simulation time: 0 hr 0 min 47 sec) 
Heartbeat CPU 0 instructions: 30000001 cycles: 11662518 heartbeat IPC: 2.06657 cumulative IPC: 2.57234 (Simulation time: 0 hr 1 min 20 sec) 
Heartbeat CPU 0 instructions: 40000001 cycles: 15802688 heartbeat IPC: 2.41536 cumulative IPC: 2.53121 (Simulation time: 0 hr 1 min 52 sec) 
Heartbeat CPU 0 instructions: 50000003 cycles: 19405203 heartbeat IPC: 2.77584 cumulative IPC: 2.57663 (Simulation time: 0 hr 2 min 22 sec) 

Warmup complete CPU 0 instructions: 50000003 cycles: 19405203 (Simulation time: 0 hr 2 min 22 sec) 

Heartbeat CPU 0 instructions: 60000000 cycles: 25223183 heartbeat IPC: 1.71881 cumulative IPC: 1.71881 (Simulation time: 0 hr 2 min 46 sec) 
Heartbeat CPU 0 instructions: 70000000 cycles: 31062117 heartbeat IPC: 1.71264 cumulative IPC: 1.71572 (Simulation time: 0 hr 3 min 11 sec) 
Heartbeat CPU 0 instructions: 80000001 cycles: 37312621 heartbeat IPC: 1.59987 cumulative IPC: 1.67528 (Simulation time: 0 hr 3 min 30 sec) 
Heartbeat CPU 0 instructions: 90000000 cycles: 45295776 heartbeat IPC: 1.25264 cumulative IPC: 1.54496 (Simulation time: 0 hr 3 min 51 sec) 
Heartbeat CPU 0 instructions: 100000003 cycles: 54315746 heartbeat IPC: 1.10865 cumulative IPC: 1.43223 (Simulation time: 0 hr 4 min 12 sec) 
Heartbeat CPU 0 instructions: 110000000 cycles: 63799185 heartbeat IPC: 1.05447 cumulative IPC: 1.35153 (Simulation time: 0 hr 4 min 33 sec) 
Heartbeat CPU 0 instructions: 120000001 cycles: 73293705 heartbeat IPC: 1.05324 cumulative IPC: 1.29898 (Simulation time: 0 hr 4 min 54 sec) 
Heartbeat CPU 0 instructions: 130000003 cycles: 83015680 heartbeat IPC: 1.0286 cumulative IPC: 1.25765 (Simulation time: 0 hr 5 min 14 sec) 
Heartbeat CPU 0 instructions: 140000000 cycles: 92713029 heartbeat IPC: 1.03121 cumulative IPC: 1.2277 (Simulation time: 0 hr 5 min 34 sec) 
Heartbeat CPU 0 instructions: 150000000 cycles: 102228248 heartbeat IPC: 1.05095 cumulative IPC: 1.20739 (Simulation time: 0 hr 5 min 55 sec) 
Heartbeat CPU 0 instructions: 160000001 cycles: 111845755 heartbeat IPC: 1.03977 cumulative IPC: 1.18995 (Simulation time: 0 hr 6 min 15 sec) 
Heartbeat CPU 0 instructions: 170000000 cycles: 121943105 heartbeat IPC: 0.990359 cumulative IPC: 1.1703 (Simulation time: 0 hr 6 min 36 sec) 
Heartbeat CPU 0 instructions: 180000001 cycles: 131579427 heartbeat IPC: 1.03774 cumulative IPC: 1.15891 (Simulation time: 0 hr 6 min 57 sec) 
Heartbeat CPU 0 instructions: 190000003 cycles: 140363082 heartbeat IPC: 1.13848 cumulative IPC: 1.15743 (Simulation time: 0 hr 7 min 16 sec) 
Heartbeat CPU 0 instructions: 200000001 cycles: 148714549 heartbeat IPC: 1.19739 cumulative IPC: 1.16001 (Simulation time: 0 hr 7 min 33 sec) 
Heartbeat CPU 0 instructions: 210000002 cycles: 157043875 heartbeat IPC: 1.20058 cumulative IPC: 1.16246 (Simulation time: 0 hr 7 min 51 sec) 
Heartbeat CPU 0 instructions: 220000000 cycles: 169009780 heartbeat IPC: 0.835708 cumulative IPC: 1.13633 (Simulation time: 0 hr 8 min 25 sec) 
Heartbeat CPU 0 instructions: 230000003 cycles: 180820975 heartbeat IPC: 0.846655 cumulative IPC: 1.11513 (Simulation time: 0 hr 8 min 59 sec) 
Heartbeat CPU 0 instructions: 240000002 cycles: 188723836 heartbeat IPC: 1.26536 cumulative IPC: 1.12214 (Simulation time: 0 hr 9 min 21 sec) 
Heartbeat CPU 0 instructions: 250000003 cycles: 194462525 heartbeat IPC: 1.74256 cumulative IPC: 1.14248 (Simulation time: 0 hr 9 min 45 sec) 
Finished CPU 0 instructions: 200000000 cycles: 175057322 cumulative IPC: 1.14248 (Simulation time: 0 hr 9 min 45 sec) 

ChampSim completed all CPUs

Region of Interest Statistics

CPU 0 cumulative IPC: 1.14248 instructions: 200000000 cycles: 175057322
L1D TOTAL     ACCESS:   62263380  HIT:   60110772  MISS:    2152608
L1D LOAD      ACCESS:   37971687  HIT:   36341419  MISS:    1630268
L1D RFO       ACCESS:   24291693  HIT:   23769353  MISS:     522340
L1D PREFETCH  ACCESS:          0  HIT:          0  MISS:          0
L1D WRITEBACK ACCESS:          0  HIT:          0  MISS:          0
L1D PREFETCH  REQUESTED:          0  ISSUED:          0  USEFUL:          0  USELESS:          0
L1D AVERAGE MISS LATENCY: 35.5253 cycles
L1I TOTAL     ACCESS:   34534813  HIT:   34534724  MISS:         89
L1I LOAD      ACCESS:   34534721  HIT:   34534700  MISS:         21
L1I RFO       ACCESS:          0  HIT:          0  MISS:          0
L1I PREFETCH  ACCESS:         92  HIT:         24  MISS:         68
L1I WRITEBACK ACCESS:          0  HIT:          0  MISS:          0
L1I PREFETCH  REQUESTED:        944  ISSUED:        944  USEFUL:        241  USELESS:          3
L1I AVERAGE MISS LATENCY: 172.236 cycles
L2C TOTAL     ACCESS:    3104875  HIT:    2275531  MISS:     829344
L2C LOAD      ACCESS:    1630135  HIT:    1276469  MISS:     353666
L2C RFO       ACCESS:     522239  HIT:     193445  MISS:     328794
L2C PREFETCH  ACCESS:     262625  HIT:     116108  MISS:     146517
L2C WRITEBACK ACCESS:     689876  HIT:     689509  MISS:        367
L2C PREFETCH  REQUESTED:    1754807  ISSUED:    1582012  USEFUL:     190122  USELESS:       5492
L2C AVERAGE MISS LATENCY: 62.8719 cycles
LLC TOTAL     ACCESS:    2824336  HIT:    2615279  MISS:     209057
LLC LOAD      ACCESS:     349088  HIT:     334138  MISS:      14950
LLC RFO       ACCESS:     328784  HIT:     228823  MISS:      99961
LLC PREFETCH  ACCESS:    1748984  HIT:    1658591  MISS:      90393
LLC WRITEBACK ACCESS:     397480  HIT:     393727  MISS:       3753
LLC PREFETCH  REQUESTED:    1596940  ISSUED:    1569166  USEFUL:      35720  USELESS:      73987
LLC AVERAGE MISS LATENCY: 202.472 cycles
Major fault: 0 Minor fault: 1207
CPU 0 L1D next line prefetcher final stats

L2C Signature Path Prefetcher final stats
LLC Next Line Prefetcher Final Stats: none

DRAM Statistics
 CHANNEL 0
 RQ ROW_BUFFER_HIT:      53816  ROW_BUFFER_MISS:     151403
 DBUS_CONGESTED:     101961
 WQ ROW_BUFFER_HIT:      35153  ROW_BUFFER_MISS:     105704  FULL:          0

 AVG_CONGESTED_CYCLE: 6

CPU 0 Branch Prediction Accuracy: 93.1077% MPKI: 9.94713 Average ROB Occupancy at Mispredict: 24.205

Branch types
NOT_BRANCH: 171135633 85.5678%
BRANCH_DIRECT_JUMP: 2579338 1.28967%
BRANCH_INDIRECT: 0 0%
BRANCH_CONDITIONAL: 24284231 12.1421%
BRANCH_DIRECT_CALL: 1000418 0.500209%
BRANCH_INDIRECT_CALL: 0 0%
BRANCH_RETURN: 1000419 0.500209%
BRANCH_OTHER: 0 0%

