
*** ChampSim Multicore Out-of-Order Simulator ***

Warmup Instructions: 50000000
Simulation Instructions: 200000000
Number of CPUs: 1
LLC sets: 2048
LLC ways: 16
Off-chip DRAM Size: 4096 MB Channels: 1 Width: 64-bit Data Rate: 3200 MT/s

CPU 0 runs /scratch/vsgirelli/ChampSim/trabalho_traces//403.gcc-48B.champsimtrace.xz
CPU 0 L1D next line prefetcher
L2C Signature Path Prefetcher
Initialize DRRIP state
Assign rand_sets[0]: 454  LLC: 2048
rand_sets[0]: 454
Assign rand_sets[1]: 1662  LLC: 2048
rand_sets[1]: 1662
Assign rand_sets[2]: 1921  LLC: 2048
rand_sets[2]: 1921
Assign rand_sets[3]: 1131  LLC: 2048
rand_sets[3]: 1131
Assign rand_sets[4]: 331  LLC: 2048
rand_sets[4]: 331
Assign rand_sets[5]: 1531  LLC: 2048
rand_sets[5]: 1531
Assign rand_sets[6]: 482  LLC: 2048
rand_sets[6]: 482
Assign rand_sets[7]: 1275  LLC: 2048
rand_sets[7]: 1275
Assign rand_sets[8]: 1876  LLC: 2048
rand_sets[8]: 1876
Assign rand_sets[9]: 2038  LLC: 2048
rand_sets[9]: 2038
Assign rand_sets[10]: 701  LLC: 2048
rand_sets[10]: 701
Assign rand_sets[11]: 479  LLC: 2048
rand_sets[11]: 479
Assign rand_sets[12]: 892  LLC: 2048
rand_sets[12]: 892
Assign rand_sets[13]: 1820  LLC: 2048
rand_sets[13]: 1820
Assign rand_sets[14]: 1505  LLC: 2048
rand_sets[14]: 1505
Assign rand_sets[15]: 1159  LLC: 2048
rand_sets[15]: 1159
Assign rand_sets[16]: 513  LLC: 2048
rand_sets[16]: 513
Assign rand_sets[17]: 703  LLC: 2048
rand_sets[17]: 703
Assign rand_sets[18]: 561  LLC: 2048
rand_sets[18]: 561
Assign rand_sets[19]: 990  LLC: 2048
rand_sets[19]: 990
Assign rand_sets[20]: 342  LLC: 2048
rand_sets[20]: 342
Assign rand_sets[21]: 882  LLC: 2048
rand_sets[21]: 882
Assign rand_sets[22]: 15  LLC: 2048
rand_sets[22]: 15
Assign rand_sets[23]: 71  LLC: 2048
rand_sets[23]: 71
Assign rand_sets[24]: 1127  LLC: 2048
rand_sets[24]: 1127
Assign rand_sets[25]: 1382  LLC: 2048
rand_sets[25]: 1382
Assign rand_sets[26]: 647  LLC: 2048
rand_sets[26]: 647
Assign rand_sets[27]: 857  LLC: 2048
rand_sets[27]: 857
Assign rand_sets[28]: 1450  LLC: 2048
rand_sets[28]: 1450
Assign rand_sets[29]: 1160  LLC: 2048
rand_sets[29]: 1160
Assign rand_sets[30]: 1852  LLC: 2048
rand_sets[30]: 1852
Assign rand_sets[31]: 1881  LLC: 2048
rand_sets[31]: 1881
Assign rand_sets[32]: 1770  LLC: 2048
rand_sets[32]: 1770
Assign rand_sets[33]: 1622  LLC: 2048
rand_sets[33]: 1622
Assign rand_sets[34]: 275  LLC: 2048
rand_sets[34]: 275
Assign rand_sets[35]: 635  LLC: 2048
rand_sets[35]: 635
Assign rand_sets[36]: 466  LLC: 2048
rand_sets[36]: 466
Assign rand_sets[37]: 1413  LLC: 2048
rand_sets[37]: 1413
Assign rand_sets[38]: 417  LLC: 2048
rand_sets[38]: 417
Assign rand_sets[39]: 472  LLC: 2048
rand_sets[39]: 472
Assign rand_sets[40]: 1340  LLC: 2048
rand_sets[40]: 1340
Assign rand_sets[41]: 852  LLC: 2048
rand_sets[41]: 852
Assign rand_sets[42]: 1365  LLC: 2048
rand_sets[42]: 1365
Assign rand_sets[43]: 47  LLC: 2048
rand_sets[43]: 47
Assign rand_sets[44]: 823  LLC: 2048
rand_sets[44]: 823
Assign rand_sets[45]: 686  LLC: 2048
rand_sets[45]: 686
Assign rand_sets[46]: 1637  LLC: 2048
rand_sets[46]: 1637
Assign rand_sets[47]: 1115  LLC: 2048
rand_sets[47]: 1115
Assign rand_sets[48]: 986  LLC: 2048
rand_sets[48]: 986
Assign rand_sets[49]: 258  LLC: 2048
rand_sets[49]: 258
Assign rand_sets[50]: 633  LLC: 2048
rand_sets[50]: 633
Assign rand_sets[51]: 920  LLC: 2048
rand_sets[51]: 920
Assign rand_sets[52]: 204  LLC: 2048
rand_sets[52]: 204
Assign rand_sets[53]: 227  LLC: 2048
rand_sets[53]: 227
Assign rand_sets[54]: 1818  LLC: 2048
rand_sets[54]: 1818
Assign rand_sets[55]: 886  LLC: 2048
rand_sets[55]: 886
Assign rand_sets[56]: 1422  LLC: 2048
rand_sets[56]: 1422
Assign rand_sets[57]: 607  LLC: 2048
rand_sets[57]: 607
Assign rand_sets[58]: 217  LLC: 2048
rand_sets[58]: 217
Assign rand_sets[59]: 1945  LLC: 2048
rand_sets[59]: 1945
Assign rand_sets[60]: 143  LLC: 2048
rand_sets[60]: 143
Assign rand_sets[61]: 1311  LLC: 2048
rand_sets[61]: 1311
Assign rand_sets[62]: 319  LLC: 2048
rand_sets[62]: 319
Assign rand_sets[63]: 1846  LLC: 2048
rand_sets[63]: 1846
LLC Next Line Prefetcher
Heartbeat CPU 0 instructions: 10000002 cycles: 4169511 heartbeat IPC: 2.39836 cumulative IPC: 2.39836 (Simulation time: 0 hr 0 min 30 sec) 
Heartbeat CPU 0 instructions: 20000000 cycles: 8340816 heartbeat IPC: 2.39733 cumulative IPC: 2.39785 (Simulation time: 0 hr 1 min 0 sec) 
Heartbeat CPU 0 instructions: 30000001 cycles: 12510117 heartbeat IPC: 2.39848 cumulative IPC: 2.39806 (Simulation time: 0 hr 1 min 30 sec) 
Heartbeat CPU 0 instructions: 40000002 cycles: 16679052 heartbeat IPC: 2.39869 cumulative IPC: 2.39822 (Simulation time: 0 hr 2 min 0 sec) 
Heartbeat CPU 0 instructions: 50000002 cycles: 20853346 heartbeat IPC: 2.39561 cumulative IPC: 2.3977 (Simulation time: 0 hr 2 min 30 sec) 

Warmup complete CPU 0 instructions: 50000002 cycles: 20853346 (Simulation time: 0 hr 2 min 30 sec) 

Heartbeat CPU 0 instructions: 60000001 cycles: 27901068 heartbeat IPC: 1.4189 cumulative IPC: 1.4189 (Simulation time: 0 hr 3 min 4 sec) 
Heartbeat CPU 0 instructions: 70000002 cycles: 34960405 heartbeat IPC: 1.41656 cumulative IPC: 1.41773 (Simulation time: 0 hr 3 min 37 sec) 
Heartbeat CPU 0 instructions: 80000001 cycles: 41995663 heartbeat IPC: 1.42141 cumulative IPC: 1.41896 (Simulation time: 0 hr 4 min 11 sec) 
Heartbeat CPU 0 instructions: 90000002 cycles: 49060462 heartbeat IPC: 1.41547 cumulative IPC: 1.41808 (Simulation time: 0 hr 4 min 45 sec) 
Heartbeat CPU 0 instructions: 100000001 cycles: 56124719 heartbeat IPC: 1.41558 cumulative IPC: 1.41758 (Simulation time: 0 hr 5 min 19 sec) 
Heartbeat CPU 0 instructions: 110000000 cycles: 63148915 heartbeat IPC: 1.42365 cumulative IPC: 1.41859 (Simulation time: 0 hr 5 min 52 sec) 
Heartbeat CPU 0 instructions: 120000000 cycles: 70237123 heartbeat IPC: 1.41079 cumulative IPC: 1.41747 (Simulation time: 0 hr 6 min 26 sec) 
Heartbeat CPU 0 instructions: 130000003 cycles: 77325609 heartbeat IPC: 1.41074 cumulative IPC: 1.41662 (Simulation time: 0 hr 7 min 0 sec) 
Heartbeat CPU 0 instructions: 140000002 cycles: 84404292 heartbeat IPC: 1.41269 cumulative IPC: 1.41619 (Simulation time: 0 hr 7 min 34 sec) 
Heartbeat CPU 0 instructions: 150000000 cycles: 91472471 heartbeat IPC: 1.41479 cumulative IPC: 1.41605 (Simulation time: 0 hr 8 min 8 sec) 
Heartbeat CPU 0 instructions: 160000001 cycles: 98535222 heartbeat IPC: 1.41588 cumulative IPC: 1.41603 (Simulation time: 0 hr 8 min 41 sec) 
Heartbeat CPU 0 instructions: 170000002 cycles: 105590398 heartbeat IPC: 1.4174 cumulative IPC: 1.41615 (Simulation time: 0 hr 9 min 15 sec) 
Heartbeat CPU 0 instructions: 180000000 cycles: 112648103 heartbeat IPC: 1.41689 cumulative IPC: 1.4162 (Simulation time: 0 hr 9 min 49 sec) 
Heartbeat CPU 0 instructions: 190000001 cycles: 119689704 heartbeat IPC: 1.42013 cumulative IPC: 1.41648 (Simulation time: 0 hr 10 min 23 sec) 
Heartbeat CPU 0 instructions: 200000002 cycles: 126755822 heartbeat IPC: 1.4152 cumulative IPC: 1.4164 (Simulation time: 0 hr 10 min 57 sec) 
Heartbeat CPU 0 instructions: 210000002 cycles: 133839830 heartbeat IPC: 1.41163 cumulative IPC: 1.4161 (Simulation time: 0 hr 11 min 31 sec) 
Heartbeat CPU 0 instructions: 220000000 cycles: 140917105 heartbeat IPC: 1.41297 cumulative IPC: 1.41591 (Simulation time: 0 hr 12 min 4 sec) 
Heartbeat CPU 0 instructions: 230000003 cycles: 147995545 heartbeat IPC: 1.41274 cumulative IPC: 1.41574 (Simulation time: 0 hr 12 min 38 sec) 
Heartbeat CPU 0 instructions: 240000000 cycles: 155047291 heartbeat IPC: 1.41809 cumulative IPC: 1.41586 (Simulation time: 0 hr 13 min 12 sec) 
Heartbeat CPU 0 instructions: 250000003 cycles: 162100157 heartbeat IPC: 1.41786 cumulative IPC: 1.41596 (Simulation time: 0 hr 13 min 46 sec) 
Finished CPU 0 instructions: 200000001 cycles: 141246811 cumulative IPC: 1.41596 (Simulation time: 0 hr 13 min 46 sec) 

ChampSim completed all CPUs

Region of Interest Statistics

CPU 0 cumulative IPC: 1.41596 instructions: 200000001 cycles: 141246811
L1D TOTAL     ACCESS:   68223468  HIT:   68045918  MISS:     177550
L1D LOAD      ACCESS:   32748751  HIT:   32578016  MISS:     170735
L1D RFO       ACCESS:   35474717  HIT:   35467902  MISS:       6815
L1D PREFETCH  ACCESS:          0  HIT:          0  MISS:          0
L1D WRITEBACK ACCESS:          0  HIT:          0  MISS:          0
L1D PREFETCH  REQUESTED:          0  ISSUED:          0  USEFUL:          0  USELESS:          0
L1D AVERAGE MISS LATENCY: 48.8242 cycles
L1I TOTAL     ACCESS:   52021916  HIT:   52021916  MISS:          0
L1I LOAD      ACCESS:   52021916  HIT:   52021916  MISS:          0
L1I RFO       ACCESS:          0  HIT:          0  MISS:          0
L1I PREFETCH  ACCESS:          0  HIT:          0  MISS:          0
L1I WRITEBACK ACCESS:          0  HIT:          0  MISS:          0
L1I PREFETCH  REQUESTED:        376  ISSUED:        376  USEFUL:         51  USELESS:          0
L1I AVERAGE MISS LATENCY: -nan cycles
L2C TOTAL     ACCESS:     200950  HIT:     150651  MISS:      50299
L2C LOAD      ACCESS:     170735  HIT:     131793  MISS:      38942
L2C RFO       ACCESS:       6815  HIT:        550  MISS:       6265
L2C PREFETCH  ACCESS:       5141  HIT:         68  MISS:       5073
L2C WRITEBACK ACCESS:      18259  HIT:      18240  MISS:         19
L2C PREFETCH  REQUESTED:      69118  ISSUED:      69118  USEFUL:       5088  USELESS:        976
L2C AVERAGE MISS LATENCY: 123.894 cycles
LLC TOTAL     ACCESS:     202291  HIT:     128395  MISS:      73896
LLC LOAD      ACCESS:      38933  HIT:      16700  MISS:      22233
LLC RFO       ACCESS:       6265  HIT:          2  MISS:       6263
LLC PREFETCH  ACCESS:     141760  HIT:      98588  MISS:      43172
LLC WRITEBACK ACCESS:      15333  HIT:      13105  MISS:       2228
LLC PREFETCH  REQUESTED:     116877  ISSUED:     115874  USEFUL:      19983  USELESS:      23023
LLC AVERAGE MISS LATENCY: 154.749 cycles
Major fault: 0 Minor fault: 3166
CPU 0 L1D next line prefetcher final stats

L2C Signature Path Prefetcher final stats
LLC Next Line Prefetcher Final Stats: none

DRAM Statistics
 CHANNEL 0
 RQ ROW_BUFFER_HIT:      13300  ROW_BUFFER_MISS:      58368
 DBUS_CONGESTED:      10718
 WQ ROW_BUFFER_HIT:       1931  ROW_BUFFER_MISS:      10445  FULL:          0

 AVG_CONGESTED_CYCLE: 5

CPU 0 Branch Prediction Accuracy: 99.8948% MPKI: 0.23418 Average ROB Occupancy at Mispredict: 161.001

Branch types
NOT_BRANCH: 155459753 77.7299%
BRANCH_DIRECT_JUMP: 6043339 3.02167%
BRANCH_INDIRECT: 2962107 1.48105%
BRANCH_CONDITIONAL: 29440141 14.7201%
BRANCH_DIRECT_CALL: 3030357 1.51518%
BRANCH_INDIRECT_CALL: 16973 0.0084865%
BRANCH_RETURN: 3047330 1.52366%
BRANCH_OTHER: 0 0%

