
*** ChampSim Multicore Out-of-Order Simulator ***

Warmup Instructions: 50000000
Simulation Instructions: 200000000
Number of CPUs: 1
LLC sets: 2048
LLC ways: 16
Off-chip DRAM Size: 4096 MB Channels: 1 Width: 64-bit Data Rate: 3200 MT/s

CPU 0 runs /scratch/vsgirelli/ChampSim/trabalho_traces//454.calculix-460B.champsimtrace.xz
CPU 0 L1D next line prefetcher
L2C Signature Path Prefetcher
Initialize DRRIP state
Assign rand_sets[0]: 454  LLC: 2048
rand_sets[0]: 454
Assign rand_sets[1]: 1662  LLC: 2048
rand_sets[1]: 1662
Assign rand_sets[2]: 1921  LLC: 2048
rand_sets[2]: 1921
Assign rand_sets[3]: 1131  LLC: 2048
rand_sets[3]: 1131
Assign rand_sets[4]: 331  LLC: 2048
rand_sets[4]: 331
Assign rand_sets[5]: 1531  LLC: 2048
rand_sets[5]: 1531
Assign rand_sets[6]: 482  LLC: 2048
rand_sets[6]: 482
Assign rand_sets[7]: 1275  LLC: 2048
rand_sets[7]: 1275
Assign rand_sets[8]: 1876  LLC: 2048
rand_sets[8]: 1876
Assign rand_sets[9]: 2038  LLC: 2048
rand_sets[9]: 2038
Assign rand_sets[10]: 701  LLC: 2048
rand_sets[10]: 701
Assign rand_sets[11]: 479  LLC: 2048
rand_sets[11]: 479
Assign rand_sets[12]: 892  LLC: 2048
rand_sets[12]: 892
Assign rand_sets[13]: 1820  LLC: 2048
rand_sets[13]: 1820
Assign rand_sets[14]: 1505  LLC: 2048
rand_sets[14]: 1505
Assign rand_sets[15]: 1159  LLC: 2048
rand_sets[15]: 1159
Assign rand_sets[16]: 513  LLC: 2048
rand_sets[16]: 513
Assign rand_sets[17]: 703  LLC: 2048
rand_sets[17]: 703
Assign rand_sets[18]: 561  LLC: 2048
rand_sets[18]: 561
Assign rand_sets[19]: 990  LLC: 2048
rand_sets[19]: 990
Assign rand_sets[20]: 342  LLC: 2048
rand_sets[20]: 342
Assign rand_sets[21]: 882  LLC: 2048
rand_sets[21]: 882
Assign rand_sets[22]: 15  LLC: 2048
rand_sets[22]: 15
Assign rand_sets[23]: 71  LLC: 2048
rand_sets[23]: 71
Assign rand_sets[24]: 1127  LLC: 2048
rand_sets[24]: 1127
Assign rand_sets[25]: 1382  LLC: 2048
rand_sets[25]: 1382
Assign rand_sets[26]: 647  LLC: 2048
rand_sets[26]: 647
Assign rand_sets[27]: 857  LLC: 2048
rand_sets[27]: 857
Assign rand_sets[28]: 1450  LLC: 2048
rand_sets[28]: 1450
Assign rand_sets[29]: 1160  LLC: 2048
rand_sets[29]: 1160
Assign rand_sets[30]: 1852  LLC: 2048
rand_sets[30]: 1852
Assign rand_sets[31]: 1881  LLC: 2048
rand_sets[31]: 1881
Assign rand_sets[32]: 1770  LLC: 2048
rand_sets[32]: 1770
Assign rand_sets[33]: 1622  LLC: 2048
rand_sets[33]: 1622
Assign rand_sets[34]: 275  LLC: 2048
rand_sets[34]: 275
Assign rand_sets[35]: 635  LLC: 2048
rand_sets[35]: 635
Assign rand_sets[36]: 466  LLC: 2048
rand_sets[36]: 466
Assign rand_sets[37]: 1413  LLC: 2048
rand_sets[37]: 1413
Assign rand_sets[38]: 417  LLC: 2048
rand_sets[38]: 417
Assign rand_sets[39]: 472  LLC: 2048
rand_sets[39]: 472
Assign rand_sets[40]: 1340  LLC: 2048
rand_sets[40]: 1340
Assign rand_sets[41]: 852  LLC: 2048
rand_sets[41]: 852
Assign rand_sets[42]: 1365  LLC: 2048
rand_sets[42]: 1365
Assign rand_sets[43]: 47  LLC: 2048
rand_sets[43]: 47
Assign rand_sets[44]: 823  LLC: 2048
rand_sets[44]: 823
Assign rand_sets[45]: 686  LLC: 2048
rand_sets[45]: 686
Assign rand_sets[46]: 1637  LLC: 2048
rand_sets[46]: 1637
Assign rand_sets[47]: 1115  LLC: 2048
rand_sets[47]: 1115
Assign rand_sets[48]: 986  LLC: 2048
rand_sets[48]: 986
Assign rand_sets[49]: 258  LLC: 2048
rand_sets[49]: 258
Assign rand_sets[50]: 633  LLC: 2048
rand_sets[50]: 633
Assign rand_sets[51]: 920  LLC: 2048
rand_sets[51]: 920
Assign rand_sets[52]: 204  LLC: 2048
rand_sets[52]: 204
Assign rand_sets[53]: 227  LLC: 2048
rand_sets[53]: 227
Assign rand_sets[54]: 1818  LLC: 2048
rand_sets[54]: 1818
Assign rand_sets[55]: 886  LLC: 2048
rand_sets[55]: 886
Assign rand_sets[56]: 1422  LLC: 2048
rand_sets[56]: 1422
Assign rand_sets[57]: 607  LLC: 2048
rand_sets[57]: 607
Assign rand_sets[58]: 217  LLC: 2048
rand_sets[58]: 217
Assign rand_sets[59]: 1945  LLC: 2048
rand_sets[59]: 1945
Assign rand_sets[60]: 143  LLC: 2048
rand_sets[60]: 143
Assign rand_sets[61]: 1311  LLC: 2048
rand_sets[61]: 1311
Assign rand_sets[62]: 319  LLC: 2048
rand_sets[62]: 319
Assign rand_sets[63]: 1846  LLC: 2048
rand_sets[63]: 1846
LLC Next Line Prefetcher
Heartbeat CPU 0 instructions: 10000003 cycles: 3065783 heartbeat IPC: 3.26181 cumulative IPC: 3.26181 (Simulation time: 0 hr 0 min 23 sec) 
Heartbeat CPU 0 instructions: 20000002 cycles: 6075980 heartbeat IPC: 3.32204 cumulative IPC: 3.29165 (Simulation time: 0 hr 0 min 46 sec) 
Heartbeat CPU 0 instructions: 30000002 cycles: 9123899 heartbeat IPC: 3.28093 cumulative IPC: 3.28807 (Simulation time: 0 hr 1 min 9 sec) 
Heartbeat CPU 0 instructions: 40000003 cycles: 12141248 heartbeat IPC: 3.31417 cumulative IPC: 3.29455 (Simulation time: 0 hr 1 min 32 sec) 
Heartbeat CPU 0 instructions: 50000002 cycles: 15171797 heartbeat IPC: 3.29973 cumulative IPC: 3.29559 (Simulation time: 0 hr 1 min 55 sec) 

Warmup complete CPU 0 instructions: 50000002 cycles: 15171797 (Simulation time: 0 hr 1 min 55 sec) 

Heartbeat CPU 0 instructions: 60000003 cycles: 20428464 heartbeat IPC: 1.90235 cumulative IPC: 1.90235 (Simulation time: 0 hr 2 min 12 sec) 
Heartbeat CPU 0 instructions: 70000001 cycles: 27776106 heartbeat IPC: 1.36098 cumulative IPC: 1.58676 (Simulation time: 0 hr 2 min 31 sec) 
Heartbeat CPU 0 instructions: 80000002 cycles: 35696509 heartbeat IPC: 1.26256 cumulative IPC: 1.46165 (Simulation time: 0 hr 2 min 49 sec) 
Heartbeat CPU 0 instructions: 90000000 cycles: 41921194 heartbeat IPC: 1.60651 cumulative IPC: 1.49536 (Simulation time: 0 hr 3 min 7 sec) 
Heartbeat CPU 0 instructions: 100000000 cycles: 47027585 heartbeat IPC: 1.95833 cumulative IPC: 1.56957 (Simulation time: 0 hr 3 min 26 sec) 
Heartbeat CPU 0 instructions: 110000000 cycles: 52189635 heartbeat IPC: 1.93721 cumulative IPC: 1.62084 (Simulation time: 0 hr 3 min 43 sec) 
Heartbeat CPU 0 instructions: 120000002 cycles: 57401067 heartbeat IPC: 1.91886 cumulative IPC: 1.65762 (Simulation time: 0 hr 4 min 0 sec) 
Heartbeat CPU 0 instructions: 130000003 cycles: 62610016 heartbeat IPC: 1.91977 cumulative IPC: 1.6864 (Simulation time: 0 hr 4 min 17 sec) 
Heartbeat CPU 0 instructions: 140000003 cycles: 67796667 heartbeat IPC: 1.92803 cumulative IPC: 1.71022 (Simulation time: 0 hr 4 min 34 sec) 
Heartbeat CPU 0 instructions: 150000001 cycles: 72926178 heartbeat IPC: 1.9495 cumulative IPC: 1.73147 (Simulation time: 0 hr 4 min 51 sec) 
Heartbeat CPU 0 instructions: 160000002 cycles: 78114057 heartbeat IPC: 1.92757 cumulative IPC: 1.74763 (Simulation time: 0 hr 5 min 8 sec) 
Heartbeat CPU 0 instructions: 170000001 cycles: 83323122 heartbeat IPC: 1.91973 cumulative IPC: 1.76079 (Simulation time: 0 hr 5 min 25 sec) 
Heartbeat CPU 0 instructions: 180000001 cycles: 88514331 heartbeat IPC: 1.92633 cumulative IPC: 1.7725 (Simulation time: 0 hr 5 min 41 sec) 
Heartbeat CPU 0 instructions: 190000000 cycles: 93697376 heartbeat IPC: 1.92937 cumulative IPC: 1.78286 (Simulation time: 0 hr 5 min 57 sec) 
Heartbeat CPU 0 instructions: 200000002 cycles: 98934440 heartbeat IPC: 1.90947 cumulative IPC: 1.79077 (Simulation time: 0 hr 6 min 14 sec) 
Heartbeat CPU 0 instructions: 210000002 cycles: 104248891 heartbeat IPC: 1.88166 cumulative IPC: 1.7962 (Simulation time: 0 hr 6 min 32 sec) 
Heartbeat CPU 0 instructions: 220000000 cycles: 109589238 heartbeat IPC: 1.87254 cumulative IPC: 1.80051 (Simulation time: 0 hr 6 min 50 sec) 
Heartbeat CPU 0 instructions: 230000003 cycles: 114727672 heartbeat IPC: 1.94612 cumulative IPC: 1.80803 (Simulation time: 0 hr 7 min 5 sec) 
Heartbeat CPU 0 instructions: 240000002 cycles: 119980157 heartbeat IPC: 1.90386 cumulative IPC: 1.81283 (Simulation time: 0 hr 7 min 22 sec) 
Heartbeat CPU 0 instructions: 250000001 cycles: 125162013 heartbeat IPC: 1.92981 cumulative IPC: 1.81834 (Simulation time: 0 hr 7 min 39 sec) 
Finished CPU 0 instructions: 200000003 cycles: 109990217 cumulative IPC: 1.81834 (Simulation time: 0 hr 7 min 39 sec) 

ChampSim completed all CPUs

Region of Interest Statistics

CPU 0 cumulative IPC: 1.81834 instructions: 200000003 cycles: 109990217
L1D TOTAL     ACCESS:   39376939  HIT:   36865160  MISS:    2511779
L1D LOAD      ACCESS:   34208156  HIT:   31730638  MISS:    2477518
L1D RFO       ACCESS:    5168783  HIT:    5134522  MISS:      34261
L1D PREFETCH  ACCESS:          0  HIT:          0  MISS:          0
L1D WRITEBACK ACCESS:          0  HIT:          0  MISS:          0
L1D PREFETCH  REQUESTED:          0  ISSUED:          0  USEFUL:          0  USELESS:          0
L1D AVERAGE MISS LATENCY: 20.0883 cycles
L1I TOTAL     ACCESS:   34077077  HIT:   34076005  MISS:       1072
L1I LOAD      ACCESS:   34075985  HIT:   34075745  MISS:        240
L1I RFO       ACCESS:          0  HIT:          0  MISS:          0
L1I PREFETCH  ACCESS:       1092  HIT:        260  MISS:        832
L1I WRITEBACK ACCESS:          0  HIT:          0  MISS:          0
L1I PREFETCH  REQUESTED:       2672  ISSUED:       2672  USEFUL:        305  USELESS:        389
L1I AVERAGE MISS LATENCY: 152.103 cycles
L2C TOTAL     ACCESS:    3586587  HIT:    2728420  MISS:     858167
L2C LOAD      ACCESS:    2477701  HIT:    2215739  MISS:     261962
L2C RFO       ACCESS:      34261  HIT:       3789  MISS:      30472
L2C PREFETCH  ACCESS:     564157  HIT:       1029  MISS:     563128
L2C WRITEBACK ACCESS:     510468  HIT:     507863  MISS:       2605
L2C PREFETCH  REQUESTED:    5491264  ISSUED:    5257519  USEFUL:     598605  USELESS:      18688
L2C AVERAGE MISS LATENCY: 36.5715 cycles
LLC TOTAL     ACCESS:    4983885  HIT:    4750707  MISS:     233178
LLC LOAD      ACCESS:     190130  HIT:     168192  MISS:      21938
LLC RFO       ACCESS:      30472  HIT:      19121  MISS:      11351
LLC PREFETCH  ACCESS:    4503166  HIT:    4305067  MISS:     198099
LLC WRITEBACK ACCESS:     260117  HIT:     258327  MISS:       1790
LLC PREFETCH  REQUESTED:    3933457  ISSUED:    3867791  USEFUL:      89308  USELESS:     155828
LLC AVERAGE MISS LATENCY: 142.293 cycles
Major fault: 0 Minor fault: 3399
CPU 0 L1D next line prefetcher final stats

L2C Signature Path Prefetcher final stats
LLC Next Line Prefetcher Final Stats: none

DRAM Statistics
 CHANNEL 0
 RQ ROW_BUFFER_HIT:     134902  ROW_BUFFER_MISS:      96473
 DBUS_CONGESTED:     107725
 WQ ROW_BUFFER_HIT:      16056  ROW_BUFFER_MISS:      44956  FULL:          0

 AVG_CONGESTED_CYCLE: 6

CPU 0 Branch Prediction Accuracy: 99.8856% MPKI: 0.059035 Average ROB Occupancy at Mispredict: 36.9685

Branch types
NOT_BRANCH: 189681148 94.8406%
BRANCH_DIRECT_JUMP: 100574 0.050287%
BRANCH_INDIRECT: 18 9e-06%
BRANCH_CONDITIONAL: 9985255 4.99263%
BRANCH_DIRECT_CALL: 116340 0.05817%
BRANCH_INDIRECT_CALL: 0 0%
BRANCH_RETURN: 116340 0.05817%
BRANCH_OTHER: 0 0%

