
*** ChampSim Multicore Out-of-Order Simulator ***

Warmup Instructions: 50000000
Simulation Instructions: 200000000
Number of CPUs: 1
LLC sets: 2048
LLC ways: 16
Off-chip DRAM Size: 4096 MB Channels: 1 Width: 64-bit Data Rate: 3200 MT/s

CPU 0 runs /scratch/vsgirelli/ChampSim/trabalho_traces//401.bzip2-38B.champsimtrace.xz
CPU 0 L1D stream prefetcher
L2C Signature Path Prefetcher
Initialize DRRIP state
Assign rand_sets[0]: 454  LLC: 2048
rand_sets[0]: 454
Assign rand_sets[1]: 1662  LLC: 2048
rand_sets[1]: 1662
Assign rand_sets[2]: 1921  LLC: 2048
rand_sets[2]: 1921
Assign rand_sets[3]: 1131  LLC: 2048
rand_sets[3]: 1131
Assign rand_sets[4]: 331  LLC: 2048
rand_sets[4]: 331
Assign rand_sets[5]: 1531  LLC: 2048
rand_sets[5]: 1531
Assign rand_sets[6]: 482  LLC: 2048
rand_sets[6]: 482
Assign rand_sets[7]: 1275  LLC: 2048
rand_sets[7]: 1275
Assign rand_sets[8]: 1876  LLC: 2048
rand_sets[8]: 1876
Assign rand_sets[9]: 2038  LLC: 2048
rand_sets[9]: 2038
Assign rand_sets[10]: 701  LLC: 2048
rand_sets[10]: 701
Assign rand_sets[11]: 479  LLC: 2048
rand_sets[11]: 479
Assign rand_sets[12]: 892  LLC: 2048
rand_sets[12]: 892
Assign rand_sets[13]: 1820  LLC: 2048
rand_sets[13]: 1820
Assign rand_sets[14]: 1505  LLC: 2048
rand_sets[14]: 1505
Assign rand_sets[15]: 1159  LLC: 2048
rand_sets[15]: 1159
Assign rand_sets[16]: 513  LLC: 2048
rand_sets[16]: 513
Assign rand_sets[17]: 703  LLC: 2048
rand_sets[17]: 703
Assign rand_sets[18]: 561  LLC: 2048
rand_sets[18]: 561
Assign rand_sets[19]: 990  LLC: 2048
rand_sets[19]: 990
Assign rand_sets[20]: 342  LLC: 2048
rand_sets[20]: 342
Assign rand_sets[21]: 882  LLC: 2048
rand_sets[21]: 882
Assign rand_sets[22]: 15  LLC: 2048
rand_sets[22]: 15
Assign rand_sets[23]: 71  LLC: 2048
rand_sets[23]: 71
Assign rand_sets[24]: 1127  LLC: 2048
rand_sets[24]: 1127
Assign rand_sets[25]: 1382  LLC: 2048
rand_sets[25]: 1382
Assign rand_sets[26]: 647  LLC: 2048
rand_sets[26]: 647
Assign rand_sets[27]: 857  LLC: 2048
rand_sets[27]: 857
Assign rand_sets[28]: 1450  LLC: 2048
rand_sets[28]: 1450
Assign rand_sets[29]: 1160  LLC: 2048
rand_sets[29]: 1160
Assign rand_sets[30]: 1852  LLC: 2048
rand_sets[30]: 1852
Assign rand_sets[31]: 1881  LLC: 2048
rand_sets[31]: 1881
Assign rand_sets[32]: 1770  LLC: 2048
rand_sets[32]: 1770
Assign rand_sets[33]: 1622  LLC: 2048
rand_sets[33]: 1622
Assign rand_sets[34]: 275  LLC: 2048
rand_sets[34]: 275
Assign rand_sets[35]: 635  LLC: 2048
rand_sets[35]: 635
Assign rand_sets[36]: 466  LLC: 2048
rand_sets[36]: 466
Assign rand_sets[37]: 1413  LLC: 2048
rand_sets[37]: 1413
Assign rand_sets[38]: 417  LLC: 2048
rand_sets[38]: 417
Assign rand_sets[39]: 472  LLC: 2048
rand_sets[39]: 472
Assign rand_sets[40]: 1340  LLC: 2048
rand_sets[40]: 1340
Assign rand_sets[41]: 852  LLC: 2048
rand_sets[41]: 852
Assign rand_sets[42]: 1365  LLC: 2048
rand_sets[42]: 1365
Assign rand_sets[43]: 47  LLC: 2048
rand_sets[43]: 47
Assign rand_sets[44]: 823  LLC: 2048
rand_sets[44]: 823
Assign rand_sets[45]: 686  LLC: 2048
rand_sets[45]: 686
Assign rand_sets[46]: 1637  LLC: 2048
rand_sets[46]: 1637
Assign rand_sets[47]: 1115  LLC: 2048
rand_sets[47]: 1115
Assign rand_sets[48]: 986  LLC: 2048
rand_sets[48]: 986
Assign rand_sets[49]: 258  LLC: 2048
rand_sets[49]: 258
Assign rand_sets[50]: 633  LLC: 2048
rand_sets[50]: 633
Assign rand_sets[51]: 920  LLC: 2048
rand_sets[51]: 920
Assign rand_sets[52]: 204  LLC: 2048
rand_sets[52]: 204
Assign rand_sets[53]: 227  LLC: 2048
rand_sets[53]: 227
Assign rand_sets[54]: 1818  LLC: 2048
rand_sets[54]: 1818
Assign rand_sets[55]: 886  LLC: 2048
rand_sets[55]: 886
Assign rand_sets[56]: 1422  LLC: 2048
rand_sets[56]: 1422
Assign rand_sets[57]: 607  LLC: 2048
rand_sets[57]: 607
Assign rand_sets[58]: 217  LLC: 2048
rand_sets[58]: 217
Assign rand_sets[59]: 1945  LLC: 2048
rand_sets[59]: 1945
Assign rand_sets[60]: 143  LLC: 2048
rand_sets[60]: 143
Assign rand_sets[61]: 1311  LLC: 2048
rand_sets[61]: 1311
Assign rand_sets[62]: 319  LLC: 2048
rand_sets[62]: 319
Assign rand_sets[63]: 1846  LLC: 2048
rand_sets[63]: 1846
LLC Next Line Prefetcher
Heartbeat CPU 0 instructions: 10000001 cycles: 2922693 heartbeat IPC: 3.4215 cumulative IPC: 3.4215 (Simulation time: 0 hr 0 min 21 sec) 
Heartbeat CPU 0 instructions: 20000003 cycles: 6821329 heartbeat IPC: 2.565 cumulative IPC: 2.93198 (Simulation time: 0 hr 0 min 52 sec) 
Heartbeat CPU 0 instructions: 30000001 cycles: 11659953 heartbeat IPC: 2.0667 cumulative IPC: 2.57291 (Simulation time: 0 hr 1 min 27 sec) 
Heartbeat CPU 0 instructions: 40000001 cycles: 15799736 heartbeat IPC: 2.41559 cumulative IPC: 2.53169 (Simulation time: 0 hr 2 min 1 sec) 
Heartbeat CPU 0 instructions: 50000003 cycles: 19400317 heartbeat IPC: 2.77733 cumulative IPC: 2.57728 (Simulation time: 0 hr 2 min 33 sec) 

Warmup complete CPU 0 instructions: 50000003 cycles: 19400317 (Simulation time: 0 hr 2 min 33 sec) 

Heartbeat CPU 0 instructions: 60000000 cycles: 25157274 heartbeat IPC: 1.73703 cumulative IPC: 1.73703 (Simulation time: 0 hr 2 min 59 sec) 
Heartbeat CPU 0 instructions: 70000000 cycles: 30934447 heartbeat IPC: 1.73095 cumulative IPC: 1.73398 (Simulation time: 0 hr 3 min 25 sec) 
Heartbeat CPU 0 instructions: 80000001 cycles: 37188812 heartbeat IPC: 1.59888 cumulative IPC: 1.68648 (Simulation time: 0 hr 3 min 48 sec) 
Heartbeat CPU 0 instructions: 90000000 cycles: 44862757 heartbeat IPC: 1.30311 cumulative IPC: 1.57094 (Simulation time: 0 hr 4 min 13 sec) 
Heartbeat CPU 0 instructions: 100000003 cycles: 53694440 heartbeat IPC: 1.13229 cumulative IPC: 1.45798 (Simulation time: 0 hr 4 min 36 sec) 
Heartbeat CPU 0 instructions: 110000000 cycles: 63078949 heartbeat IPC: 1.06559 cumulative IPC: 1.37367 (Simulation time: 0 hr 5 min 0 sec) 
Heartbeat CPU 0 instructions: 120000001 cycles: 72477796 heartbeat IPC: 1.06396 cumulative IPC: 1.31883 (Simulation time: 0 hr 5 min 23 sec) 
Heartbeat CPU 0 instructions: 130000003 cycles: 82170503 heartbeat IPC: 1.0317 cumulative IPC: 1.27449 (Simulation time: 0 hr 5 min 47 sec) 
Heartbeat CPU 0 instructions: 140000000 cycles: 91868947 heartbeat IPC: 1.03109 cumulative IPC: 1.24192 (Simulation time: 0 hr 6 min 11 sec) 
Heartbeat CPU 0 instructions: 150000000 cycles: 101390498 heartbeat IPC: 1.05025 cumulative IPC: 1.21966 (Simulation time: 0 hr 6 min 34 sec) 
Heartbeat CPU 0 instructions: 160000001 cycles: 110969262 heartbeat IPC: 1.04398 cumulative IPC: 1.20128 (Simulation time: 0 hr 6 min 58 sec) 
Heartbeat CPU 0 instructions: 170000000 cycles: 121071937 heartbeat IPC: 0.989837 cumulative IPC: 1.18027 (Simulation time: 0 hr 7 min 22 sec) 
Heartbeat CPU 0 instructions: 180000001 cycles: 130720744 heartbeat IPC: 1.0364 cumulative IPC: 1.1678 (Simulation time: 0 hr 7 min 46 sec) 
Heartbeat CPU 0 instructions: 190000003 cycles: 139351533 heartbeat IPC: 1.15864 cumulative IPC: 1.16714 (Simulation time: 0 hr 8 min 8 sec) 
Heartbeat CPU 0 instructions: 200000001 cycles: 147531239 heartbeat IPC: 1.22254 cumulative IPC: 1.17068 (Simulation time: 0 hr 8 min 27 sec) 
Heartbeat CPU 0 instructions: 210000002 cycles: 155600754 heartbeat IPC: 1.23923 cumulative IPC: 1.17474 (Simulation time: 0 hr 8 min 47 sec) 
Heartbeat CPU 0 instructions: 220000000 cycles: 167559497 heartbeat IPC: 0.836208 cumulative IPC: 1.14741 (Simulation time: 0 hr 9 min 25 sec) 
Heartbeat CPU 0 instructions: 230000003 cycles: 179364799 heartbeat IPC: 0.847077 cumulative IPC: 1.12525 (Simulation time: 0 hr 10 min 2 sec) 
Heartbeat CPU 0 instructions: 240000002 cycles: 187274732 heartbeat IPC: 1.26423 cumulative IPC: 1.1318 (Simulation time: 0 hr 10 min 26 sec) 
Heartbeat CPU 0 instructions: 250000003 cycles: 192960158 heartbeat IPC: 1.75888 cumulative IPC: 1.15234 (Simulation time: 0 hr 10 min 52 sec) 
Finished CPU 0 instructions: 200000000 cycles: 173559841 cumulative IPC: 1.15234 (Simulation time: 0 hr 10 min 52 sec) 

ChampSim completed all CPUs

Region of Interest Statistics

CPU 0 cumulative IPC: 1.15234 instructions: 200000000 cycles: 173559841
L1D TOTAL     ACCESS:  178530315  HIT:  171664418  MISS:    6865897
L1D LOAD      ACCESS:   38248097  HIT:   36738154  MISS:    1509943
L1D RFO       ACCESS:   24292558  HIT:   23720628  MISS:     571930
L1D PREFETCH  ACCESS:  115989660  HIT:  111205636  MISS:    4784024
L1D WRITEBACK ACCESS:          0  HIT:          0  MISS:          0
L1D PREFETCH  REQUESTED: 1655726464  ISSUED:  156205118  USEFUL:     663628  USELESS:    4526882
L1D AVERAGE MISS LATENCY: 24.6285 cycles
L1I TOTAL     ACCESS:   34521406  HIT:   34521310  MISS:         96
L1I LOAD      ACCESS:   34521365  HIT:   34521304  MISS:         61
L1I RFO       ACCESS:          0  HIT:          0  MISS:          0
L1I PREFETCH  ACCESS:         41  HIT:          6  MISS:         35
L1I WRITEBACK ACCESS:          0  HIT:          0  MISS:          0
L1I PREFETCH  REQUESTED:        401  ISSUED:        401  USEFUL:        128  USELESS:          0
L1I AVERAGE MISS LATENCY: 89.3229 cycles
L2C TOTAL     ACCESS:    7962438  HIT:    6503716  MISS:    1458722
L2C LOAD      ACCESS:    1469587  HIT:    1256978  MISS:     212609
L2C RFO       ACCESS:     571660  HIT:     216394  MISS:     355266
L2C PREFETCH  ACCESS:    5137172  HIT:    4247141  MISS:     890031
L2C WRITEBACK ACCESS:     784019  HIT:     783203  MISS:        816
L2C PREFETCH  REQUESTED:    4626760  ISSUED:    4266595  USEFUL:     250590  USELESS:     718005
L2C AVERAGE MISS LATENCY: 48.1431 cycles
LLC TOTAL     ACCESS:    4178556  HIT:    3960708  MISS:     217848
LLC LOAD      ACCESS:     211198  HIT:     202497  MISS:       8701
LLC RFO       ACCESS:     355260  HIT:     258033  MISS:      97227
LLC PREFETCH  ACCESS:    3187874  HIT:    3079528  MISS:     108346
LLC WRITEBACK ACCESS:     424224  HIT:     420650  MISS:       3574
LLC PREFETCH  REQUESTED:    2752450  ISSUED:    2706616  USEFUL:      41486  USELESS:      85119
LLC AVERAGE MISS LATENCY: 182.331 cycles
Major fault: 0 Minor fault: 1206
CPU 0 L1D stream prefetcher final stats

L2C Signature Path Prefetcher final stats
LLC Next Line Prefetcher Final Stats: none

DRAM Statistics
 CHANNEL 0
 RQ ROW_BUFFER_HIT:      56380  ROW_BUFFER_MISS:     157812
 DBUS_CONGESTED:     130329
 WQ ROW_BUFFER_HIT:      31676  ROW_BUFFER_MISS:     114912  FULL:          0

 AVG_CONGESTED_CYCLE: 6

CPU 0 Branch Prediction Accuracy: 93.1077% MPKI: 9.94713 Average ROB Occupancy at Mispredict: 23.2436

Branch types
NOT_BRANCH: 171135633 85.5678%
BRANCH_DIRECT_JUMP: 2579338 1.28967%
BRANCH_INDIRECT: 0 0%
BRANCH_CONDITIONAL: 24284231 12.1421%
BRANCH_DIRECT_CALL: 1000418 0.500209%
BRANCH_INDIRECT_CALL: 0 0%
BRANCH_RETURN: 1000419 0.500209%
BRANCH_OTHER: 0 0%

