
*** ChampSim Multicore Out-of-Order Simulator ***

Warmup Instructions: 50000000
Simulation Instructions: 200000000
Number of CPUs: 1
LLC sets: 2048
LLC ways: 16
Off-chip DRAM Size: 4096 MB Channels: 1 Width: 64-bit Data Rate: 3200 MT/s

CPU 0 runs /scratch/vsgirelli/ChampSim/trabalho_traces//403.gcc-48B.champsimtrace.xz
CPU 0 L1D stream prefetcher
L2C Signature Path Prefetcher
Initialize DRRIP state
Assign rand_sets[0]: 454  LLC: 2048
rand_sets[0]: 454
Assign rand_sets[1]: 1662  LLC: 2048
rand_sets[1]: 1662
Assign rand_sets[2]: 1921  LLC: 2048
rand_sets[2]: 1921
Assign rand_sets[3]: 1131  LLC: 2048
rand_sets[3]: 1131
Assign rand_sets[4]: 331  LLC: 2048
rand_sets[4]: 331
Assign rand_sets[5]: 1531  LLC: 2048
rand_sets[5]: 1531
Assign rand_sets[6]: 482  LLC: 2048
rand_sets[6]: 482
Assign rand_sets[7]: 1275  LLC: 2048
rand_sets[7]: 1275
Assign rand_sets[8]: 1876  LLC: 2048
rand_sets[8]: 1876
Assign rand_sets[9]: 2038  LLC: 2048
rand_sets[9]: 2038
Assign rand_sets[10]: 701  LLC: 2048
rand_sets[10]: 701
Assign rand_sets[11]: 479  LLC: 2048
rand_sets[11]: 479
Assign rand_sets[12]: 892  LLC: 2048
rand_sets[12]: 892
Assign rand_sets[13]: 1820  LLC: 2048
rand_sets[13]: 1820
Assign rand_sets[14]: 1505  LLC: 2048
rand_sets[14]: 1505
Assign rand_sets[15]: 1159  LLC: 2048
rand_sets[15]: 1159
Assign rand_sets[16]: 513  LLC: 2048
rand_sets[16]: 513
Assign rand_sets[17]: 703  LLC: 2048
rand_sets[17]: 703
Assign rand_sets[18]: 561  LLC: 2048
rand_sets[18]: 561
Assign rand_sets[19]: 990  LLC: 2048
rand_sets[19]: 990
Assign rand_sets[20]: 342  LLC: 2048
rand_sets[20]: 342
Assign rand_sets[21]: 882  LLC: 2048
rand_sets[21]: 882
Assign rand_sets[22]: 15  LLC: 2048
rand_sets[22]: 15
Assign rand_sets[23]: 71  LLC: 2048
rand_sets[23]: 71
Assign rand_sets[24]: 1127  LLC: 2048
rand_sets[24]: 1127
Assign rand_sets[25]: 1382  LLC: 2048
rand_sets[25]: 1382
Assign rand_sets[26]: 647  LLC: 2048
rand_sets[26]: 647
Assign rand_sets[27]: 857  LLC: 2048
rand_sets[27]: 857
Assign rand_sets[28]: 1450  LLC: 2048
rand_sets[28]: 1450
Assign rand_sets[29]: 1160  LLC: 2048
rand_sets[29]: 1160
Assign rand_sets[30]: 1852  LLC: 2048
rand_sets[30]: 1852
Assign rand_sets[31]: 1881  LLC: 2048
rand_sets[31]: 1881
Assign rand_sets[32]: 1770  LLC: 2048
rand_sets[32]: 1770
Assign rand_sets[33]: 1622  LLC: 2048
rand_sets[33]: 1622
Assign rand_sets[34]: 275  LLC: 2048
rand_sets[34]: 275
Assign rand_sets[35]: 635  LLC: 2048
rand_sets[35]: 635
Assign rand_sets[36]: 466  LLC: 2048
rand_sets[36]: 466
Assign rand_sets[37]: 1413  LLC: 2048
rand_sets[37]: 1413
Assign rand_sets[38]: 417  LLC: 2048
rand_sets[38]: 417
Assign rand_sets[39]: 472  LLC: 2048
rand_sets[39]: 472
Assign rand_sets[40]: 1340  LLC: 2048
rand_sets[40]: 1340
Assign rand_sets[41]: 852  LLC: 2048
rand_sets[41]: 852
Assign rand_sets[42]: 1365  LLC: 2048
rand_sets[42]: 1365
Assign rand_sets[43]: 47  LLC: 2048
rand_sets[43]: 47
Assign rand_sets[44]: 823  LLC: 2048
rand_sets[44]: 823
Assign rand_sets[45]: 686  LLC: 2048
rand_sets[45]: 686
Assign rand_sets[46]: 1637  LLC: 2048
rand_sets[46]: 1637
Assign rand_sets[47]: 1115  LLC: 2048
rand_sets[47]: 1115
Assign rand_sets[48]: 986  LLC: 2048
rand_sets[48]: 986
Assign rand_sets[49]: 258  LLC: 2048
rand_sets[49]: 258
Assign rand_sets[50]: 633  LLC: 2048
rand_sets[50]: 633
Assign rand_sets[51]: 920  LLC: 2048
rand_sets[51]: 920
Assign rand_sets[52]: 204  LLC: 2048
rand_sets[52]: 204
Assign rand_sets[53]: 227  LLC: 2048
rand_sets[53]: 227
Assign rand_sets[54]: 1818  LLC: 2048
rand_sets[54]: 1818
Assign rand_sets[55]: 886  LLC: 2048
rand_sets[55]: 886
Assign rand_sets[56]: 1422  LLC: 2048
rand_sets[56]: 1422
Assign rand_sets[57]: 607  LLC: 2048
rand_sets[57]: 607
Assign rand_sets[58]: 217  LLC: 2048
rand_sets[58]: 217
Assign rand_sets[59]: 1945  LLC: 2048
rand_sets[59]: 1945
Assign rand_sets[60]: 143  LLC: 2048
rand_sets[60]: 143
Assign rand_sets[61]: 1311  LLC: 2048
rand_sets[61]: 1311
Assign rand_sets[62]: 319  LLC: 2048
rand_sets[62]: 319
Assign rand_sets[63]: 1846  LLC: 2048
rand_sets[63]: 1846
LLC Next Line Prefetcher
Heartbeat CPU 0 instructions: 10000002 cycles: 4172007 heartbeat IPC: 2.39693 cumulative IPC: 2.39693 (Simulation time: 0 hr 0 min 34 sec) 
Heartbeat CPU 0 instructions: 20000000 cycles: 8345747 heartbeat IPC: 2.39593 cumulative IPC: 2.39643 (Simulation time: 0 hr 1 min 8 sec) 
Heartbeat CPU 0 instructions: 30000001 cycles: 12518303 heartbeat IPC: 2.39661 cumulative IPC: 2.39649 (Simulation time: 0 hr 1 min 41 sec) 
Heartbeat CPU 0 instructions: 40000002 cycles: 16690815 heartbeat IPC: 2.39664 cumulative IPC: 2.39653 (Simulation time: 0 hr 2 min 15 sec) 
Heartbeat CPU 0 instructions: 50000002 cycles: 20867992 heartbeat IPC: 2.39396 cumulative IPC: 2.39601 (Simulation time: 0 hr 2 min 48 sec) 

Warmup complete CPU 0 instructions: 50000002 cycles: 20867992 (Simulation time: 0 hr 2 min 48 sec) 

Heartbeat CPU 0 instructions: 60000001 cycles: 28109647 heartbeat IPC: 1.3809 cumulative IPC: 1.3809 (Simulation time: 0 hr 3 min 26 sec) 
Heartbeat CPU 0 instructions: 70000002 cycles: 35370923 heartbeat IPC: 1.37717 cumulative IPC: 1.37903 (Simulation time: 0 hr 4 min 4 sec) 
Heartbeat CPU 0 instructions: 80000001 cycles: 42625948 heartbeat IPC: 1.37835 cumulative IPC: 1.37881 (Simulation time: 0 hr 4 min 42 sec) 
Heartbeat CPU 0 instructions: 90000002 cycles: 49909495 heartbeat IPC: 1.37296 cumulative IPC: 1.37734 (Simulation time: 0 hr 5 min 20 sec) 
Heartbeat CPU 0 instructions: 100000001 cycles: 57177966 heartbeat IPC: 1.37581 cumulative IPC: 1.37703 (Simulation time: 0 hr 5 min 58 sec) 
Heartbeat CPU 0 instructions: 110000000 cycles: 64396635 heartbeat IPC: 1.3853 cumulative IPC: 1.3784 (Simulation time: 0 hr 6 min 36 sec) 
Heartbeat CPU 0 instructions: 120000000 cycles: 71692018 heartbeat IPC: 1.37073 cumulative IPC: 1.3773 (Simulation time: 0 hr 7 min 14 sec) 
Heartbeat CPU 0 instructions: 130000003 cycles: 78985253 heartbeat IPC: 1.37113 cumulative IPC: 1.37653 (Simulation time: 0 hr 7 min 52 sec) 
Heartbeat CPU 0 instructions: 140000002 cycles: 86273527 heartbeat IPC: 1.37207 cumulative IPC: 1.37603 (Simulation time: 0 hr 8 min 30 sec) 
Heartbeat CPU 0 instructions: 150000000 cycles: 93546225 heartbeat IPC: 1.37501 cumulative IPC: 1.37593 (Simulation time: 0 hr 9 min 8 sec) 
Heartbeat CPU 0 instructions: 160000001 cycles: 100809885 heartbeat IPC: 1.37672 cumulative IPC: 1.376 (Simulation time: 0 hr 9 min 46 sec) 
Heartbeat CPU 0 instructions: 170000002 cycles: 108074839 heartbeat IPC: 1.37647 cumulative IPC: 1.37604 (Simulation time: 0 hr 10 min 24 sec) 
Heartbeat CPU 0 instructions: 180000000 cycles: 115351603 heartbeat IPC: 1.37424 cumulative IPC: 1.3759 (Simulation time: 0 hr 11 min 2 sec) 
Heartbeat CPU 0 instructions: 190000001 cycles: 122593492 heartbeat IPC: 1.38086 cumulative IPC: 1.37625 (Simulation time: 0 hr 11 min 40 sec) 
Heartbeat CPU 0 instructions: 200000002 cycles: 129845082 heartbeat IPC: 1.37901 cumulative IPC: 1.37644 (Simulation time: 0 hr 12 min 18 sec) 
Heartbeat CPU 0 instructions: 210000002 cycles: 137142757 heartbeat IPC: 1.3703 cumulative IPC: 1.37605 (Simulation time: 0 hr 12 min 56 sec) 
Heartbeat CPU 0 instructions: 220000000 cycles: 144413929 heartbeat IPC: 1.37529 cumulative IPC: 1.37601 (Simulation time: 0 hr 13 min 34 sec) 
Heartbeat CPU 0 instructions: 230000003 cycles: 151707636 heartbeat IPC: 1.37105 cumulative IPC: 1.37573 (Simulation time: 0 hr 14 min 12 sec) 
Heartbeat CPU 0 instructions: 240000000 cycles: 158961263 heartbeat IPC: 1.37862 cumulative IPC: 1.37588 (Simulation time: 0 hr 14 min 50 sec) 
Heartbeat CPU 0 instructions: 250000003 cycles: 166210025 heartbeat IPC: 1.37955 cumulative IPC: 1.37606 (Simulation time: 0 hr 15 min 28 sec) 
Finished CPU 0 instructions: 200000001 cycles: 145342033 cumulative IPC: 1.37606 (Simulation time: 0 hr 15 min 28 sec) 

ChampSim completed all CPUs

Region of Interest Statistics

CPU 0 cumulative IPC: 1.37606 instructions: 200000001 cycles: 145342033
L1D TOTAL     ACCESS:  171198856  HIT:  161437264  MISS:    9761592
L1D LOAD      ACCESS:   32543498  HIT:   30366016  MISS:    2177482
L1D RFO       ACCESS:   35309834  HIT:   35300116  MISS:       9718
L1D PREFETCH  ACCESS:  103345524  HIT:   95771132  MISS:    7574392
L1D WRITEBACK ACCESS:          0  HIT:          0  MISS:          0
L1D PREFETCH  REQUESTED: 1422471168  ISSUED:  135301401  USEFUL:    1407790  USELESS:    7666027
L1D AVERAGE MISS LATENCY: 17.7975 cycles
L1I TOTAL     ACCESS:   52272172  HIT:   52272171  MISS:          1
L1I LOAD      ACCESS:   52272171  HIT:   52272170  MISS:          1
L1I RFO       ACCESS:          0  HIT:          0  MISS:          0
L1I PREFETCH  ACCESS:          1  HIT:          1  MISS:          0
L1I WRITEBACK ACCESS:          0  HIT:          0  MISS:          0
L1I PREFETCH  REQUESTED:        145  ISSUED:        145  USEFUL:         27  USELESS:          0
L1I AVERAGE MISS LATENCY: 44 cycles
L2C TOTAL     ACCESS:    9833653  HIT:    9713134  MISS:     120519
L2C LOAD      ACCESS:    2098002  HIT:    2068779  MISS:      29223
L2C RFO       ACCESS:       9711  HIT:       4113  MISS:       5598
L2C PREFETCH  ACCESS:    7667887  HIT:    7582189  MISS:      85698
L2C WRITEBACK ACCESS:      58053  HIT:      58053  MISS:          0
L2C PREFETCH  REQUESTED:     436410  ISSUED:     435810  USEFUL:      12099  USELESS:      85381
L2C AVERAGE MISS LATENCY: 176.608 cycles
LLC TOTAL     ACCESS:     359799  HIT:     219100  MISS:     140699
LLC LOAD      ACCESS:      29223  HIT:       6329  MISS:      22894
LLC RFO       ACCESS:       5598  HIT:        243  MISS:       5355
LLC PREFETCH  ACCESS:     309423  HIT:     197370  MISS:     112053
LLC WRITEBACK ACCESS:      15555  HIT:      15158  MISS:        397
LLC PREFETCH  REQUESTED:     278261  ISSUED:     274913  USEFUL:       7031  USELESS:     104884
LLC AVERAGE MISS LATENCY: 192.02 cycles
Major fault: 0 Minor fault: 3166
CPU 0 L1D stream prefetcher final stats

L2C Signature Path Prefetcher final stats
LLC Next Line Prefetcher Final Stats: none

DRAM Statistics
 CHANNEL 0
 RQ ROW_BUFFER_HIT:      46070  ROW_BUFFER_MISS:      94232
 DBUS_CONGESTED:      82002
 WQ ROW_BUFFER_HIT:       2270  ROW_BUFFER_MISS:      12580  FULL:          0

 AVG_CONGESTED_CYCLE: 6

CPU 0 Branch Prediction Accuracy: 99.8948% MPKI: 0.23418 Average ROB Occupancy at Mispredict: 163.135

Branch types
NOT_BRANCH: 155459753 77.7299%
BRANCH_DIRECT_JUMP: 6043339 3.02167%
BRANCH_INDIRECT: 2962107 1.48105%
BRANCH_CONDITIONAL: 29440141 14.7201%
BRANCH_DIRECT_CALL: 3030357 1.51518%
BRANCH_INDIRECT_CALL: 16973 0.0084865%
BRANCH_RETURN: 3047330 1.52366%
BRANCH_OTHER: 0 0%

