
*** ChampSim Multicore Out-of-Order Simulator ***

Warmup Instructions: 50000000
Simulation Instructions: 200000000
Number of CPUs: 1
LLC sets: 2048
LLC ways: 16
Off-chip DRAM Size: 4096 MB Channels: 1 Width: 64-bit Data Rate: 3200 MT/s

CPU 0 runs /scratch/vsgirelli/ChampSim/trabalho_traces//453.povray-252B.champsimtrace.xz
CPU 0 L1D stream prefetcher
L2C Signature Path Prefetcher
Initialize DRRIP state
Assign rand_sets[0]: 454  LLC: 2048
rand_sets[0]: 454
Assign rand_sets[1]: 1662  LLC: 2048
rand_sets[1]: 1662
Assign rand_sets[2]: 1921  LLC: 2048
rand_sets[2]: 1921
Assign rand_sets[3]: 1131  LLC: 2048
rand_sets[3]: 1131
Assign rand_sets[4]: 331  LLC: 2048
rand_sets[4]: 331
Assign rand_sets[5]: 1531  LLC: 2048
rand_sets[5]: 1531
Assign rand_sets[6]: 482  LLC: 2048
rand_sets[6]: 482
Assign rand_sets[7]: 1275  LLC: 2048
rand_sets[7]: 1275
Assign rand_sets[8]: 1876  LLC: 2048
rand_sets[8]: 1876
Assign rand_sets[9]: 2038  LLC: 2048
rand_sets[9]: 2038
Assign rand_sets[10]: 701  LLC: 2048
rand_sets[10]: 701
Assign rand_sets[11]: 479  LLC: 2048
rand_sets[11]: 479
Assign rand_sets[12]: 892  LLC: 2048
rand_sets[12]: 892
Assign rand_sets[13]: 1820  LLC: 2048
rand_sets[13]: 1820
Assign rand_sets[14]: 1505  LLC: 2048
rand_sets[14]: 1505
Assign rand_sets[15]: 1159  LLC: 2048
rand_sets[15]: 1159
Assign rand_sets[16]: 513  LLC: 2048
rand_sets[16]: 513
Assign rand_sets[17]: 703  LLC: 2048
rand_sets[17]: 703
Assign rand_sets[18]: 561  LLC: 2048
rand_sets[18]: 561
Assign rand_sets[19]: 990  LLC: 2048
rand_sets[19]: 990
Assign rand_sets[20]: 342  LLC: 2048
rand_sets[20]: 342
Assign rand_sets[21]: 882  LLC: 2048
rand_sets[21]: 882
Assign rand_sets[22]: 15  LLC: 2048
rand_sets[22]: 15
Assign rand_sets[23]: 71  LLC: 2048
rand_sets[23]: 71
Assign rand_sets[24]: 1127  LLC: 2048
rand_sets[24]: 1127
Assign rand_sets[25]: 1382  LLC: 2048
rand_sets[25]: 1382
Assign rand_sets[26]: 647  LLC: 2048
rand_sets[26]: 647
Assign rand_sets[27]: 857  LLC: 2048
rand_sets[27]: 857
Assign rand_sets[28]: 1450  LLC: 2048
rand_sets[28]: 1450
Assign rand_sets[29]: 1160  LLC: 2048
rand_sets[29]: 1160
Assign rand_sets[30]: 1852  LLC: 2048
rand_sets[30]: 1852
Assign rand_sets[31]: 1881  LLC: 2048
rand_sets[31]: 1881
Assign rand_sets[32]: 1770  LLC: 2048
rand_sets[32]: 1770
Assign rand_sets[33]: 1622  LLC: 2048
rand_sets[33]: 1622
Assign rand_sets[34]: 275  LLC: 2048
rand_sets[34]: 275
Assign rand_sets[35]: 635  LLC: 2048
rand_sets[35]: 635
Assign rand_sets[36]: 466  LLC: 2048
rand_sets[36]: 466
Assign rand_sets[37]: 1413  LLC: 2048
rand_sets[37]: 1413
Assign rand_sets[38]: 417  LLC: 2048
rand_sets[38]: 417
Assign rand_sets[39]: 472  LLC: 2048
rand_sets[39]: 472
Assign rand_sets[40]: 1340  LLC: 2048
rand_sets[40]: 1340
Assign rand_sets[41]: 852  LLC: 2048
rand_sets[41]: 852
Assign rand_sets[42]: 1365  LLC: 2048
rand_sets[42]: 1365
Assign rand_sets[43]: 47  LLC: 2048
rand_sets[43]: 47
Assign rand_sets[44]: 823  LLC: 2048
rand_sets[44]: 823
Assign rand_sets[45]: 686  LLC: 2048
rand_sets[45]: 686
Assign rand_sets[46]: 1637  LLC: 2048
rand_sets[46]: 1637
Assign rand_sets[47]: 1115  LLC: 2048
rand_sets[47]: 1115
Assign rand_sets[48]: 986  LLC: 2048
rand_sets[48]: 986
Assign rand_sets[49]: 258  LLC: 2048
rand_sets[49]: 258
Assign rand_sets[50]: 633  LLC: 2048
rand_sets[50]: 633
Assign rand_sets[51]: 920  LLC: 2048
rand_sets[51]: 920
Assign rand_sets[52]: 204  LLC: 2048
rand_sets[52]: 204
Assign rand_sets[53]: 227  LLC: 2048
rand_sets[53]: 227
Assign rand_sets[54]: 1818  LLC: 2048
rand_sets[54]: 1818
Assign rand_sets[55]: 886  LLC: 2048
rand_sets[55]: 886
Assign rand_sets[56]: 1422  LLC: 2048
rand_sets[56]: 1422
Assign rand_sets[57]: 607  LLC: 2048
rand_sets[57]: 607
Assign rand_sets[58]: 217  LLC: 2048
rand_sets[58]: 217
Assign rand_sets[59]: 1945  LLC: 2048
rand_sets[59]: 1945
Assign rand_sets[60]: 143  LLC: 2048
rand_sets[60]: 143
Assign rand_sets[61]: 1311  LLC: 2048
rand_sets[61]: 1311
Assign rand_sets[62]: 319  LLC: 2048
rand_sets[62]: 319
Assign rand_sets[63]: 1846  LLC: 2048
rand_sets[63]: 1846
LLC Next Line Prefetcher
Heartbeat CPU 0 instructions: 10000002 cycles: 5164084 heartbeat IPC: 1.93645 cumulative IPC: 1.93645 (Simulation time: 0 hr 0 min 37 sec) 
Heartbeat CPU 0 instructions: 20000000 cycles: 10279801 heartbeat IPC: 1.95476 cumulative IPC: 1.94556 (Simulation time: 0 hr 1 min 13 sec) 
Heartbeat CPU 0 instructions: 30000002 cycles: 15400233 heartbeat IPC: 1.95296 cumulative IPC: 1.94802 (Simulation time: 0 hr 1 min 49 sec) 
Heartbeat CPU 0 instructions: 40000003 cycles: 20501804 heartbeat IPC: 1.96018 cumulative IPC: 1.95105 (Simulation time: 0 hr 2 min 26 sec) 
Heartbeat CPU 0 instructions: 50000001 cycles: 25594004 heartbeat IPC: 1.96379 cumulative IPC: 1.95358 (Simulation time: 0 hr 3 min 2 sec) 

Warmup complete CPU 0 instructions: 50000001 cycles: 25594004 (Simulation time: 0 hr 3 min 2 sec) 

Heartbeat CPU 0 instructions: 60000003 cycles: 36351112 heartbeat IPC: 0.929618 cumulative IPC: 0.929618 (Simulation time: 0 hr 3 min 43 sec) 
Heartbeat CPU 0 instructions: 70000002 cycles: 47032097 heartbeat IPC: 0.936243 cumulative IPC: 0.932919 (Simulation time: 0 hr 4 min 24 sec) 
Heartbeat CPU 0 instructions: 80000001 cycles: 57620361 heartbeat IPC: 0.944442 cumulative IPC: 0.936728 (Simulation time: 0 hr 5 min 5 sec) 
Heartbeat CPU 0 instructions: 90000001 cycles: 68150209 heartbeat IPC: 0.949681 cumulative IPC: 0.939933 (Simulation time: 0 hr 5 min 46 sec) 
Heartbeat CPU 0 instructions: 100000003 cycles: 78669257 heartbeat IPC: 0.950657 cumulative IPC: 0.942059 (Simulation time: 0 hr 6 min 27 sec) 
Heartbeat CPU 0 instructions: 110000000 cycles: 89194229 heartbeat IPC: 0.950121 cumulative IPC: 0.943393 (Simulation time: 0 hr 7 min 8 sec) 
Heartbeat CPU 0 instructions: 120000000 cycles: 99713688 heartbeat IPC: 0.950619 cumulative IPC: 0.944418 (Simulation time: 0 hr 7 min 49 sec) 
Heartbeat CPU 0 instructions: 130000000 cycles: 110263523 heartbeat IPC: 0.947882 cumulative IPC: 0.94485 (Simulation time: 0 hr 8 min 30 sec) 
Heartbeat CPU 0 instructions: 140000002 cycles: 120837997 heartbeat IPC: 0.945674 cumulative IPC: 0.944942 (Simulation time: 0 hr 9 min 10 sec) 
Heartbeat CPU 0 instructions: 150000001 cycles: 131423741 heartbeat IPC: 0.944667 cumulative IPC: 0.944914 (Simulation time: 0 hr 9 min 51 sec) 
Heartbeat CPU 0 instructions: 160000001 cycles: 142057075 heartbeat IPC: 0.940439 cumulative IPC: 0.944505 (Simulation time: 0 hr 10 min 32 sec) 
Heartbeat CPU 0 instructions: 170000000 cycles: 152928338 heartbeat IPC: 0.919856 cumulative IPC: 0.942401 (Simulation time: 0 hr 11 min 13 sec) 
Heartbeat CPU 0 instructions: 180000000 cycles: 163946498 heartbeat IPC: 0.907593 cumulative IPC: 0.939629 (Simulation time: 0 hr 11 min 54 sec) 
Heartbeat CPU 0 instructions: 190000001 cycles: 175211628 heartbeat IPC: 0.887695 cumulative IPC: 0.935719 (Simulation time: 0 hr 12 min 36 sec) 
Heartbeat CPU 0 instructions: 200000000 cycles: 186542920 heartbeat IPC: 0.882512 cumulative IPC: 0.931973 (Simulation time: 0 hr 13 min 18 sec) 
Heartbeat CPU 0 instructions: 210000000 cycles: 197857174 heartbeat IPC: 0.883841 cumulative IPC: 0.928811 (Simulation time: 0 hr 14 min 0 sec) 
Heartbeat CPU 0 instructions: 220000000 cycles: 209169211 heartbeat IPC: 0.884014 cumulative IPC: 0.926051 (Simulation time: 0 hr 14 min 42 sec) 
Heartbeat CPU 0 instructions: 230000001 cycles: 220529958 heartbeat IPC: 0.880224 cumulative IPC: 0.92338 (Simulation time: 0 hr 15 min 23 sec) 
Heartbeat CPU 0 instructions: 240000002 cycles: 231919520 heartbeat IPC: 0.877997 cumulative IPC: 0.920875 (Simulation time: 0 hr 16 min 4 sec) 
Heartbeat CPU 0 instructions: 250000003 cycles: 243179187 heartbeat IPC: 0.888126 cumulative IPC: 0.91918 (Simulation time: 0 hr 16 min 45 sec) 
Finished CPU 0 instructions: 200000002 cycles: 217585183 cumulative IPC: 0.91918 (Simulation time: 0 hr 16 min 45 sec) 

ChampSim completed all CPUs

Region of Interest Statistics

CPU 0 cumulative IPC: 0.91918 instructions: 200000002 cycles: 217585183
L1D TOTAL     ACCESS:  220996185  HIT:  208613795  MISS:   12382390
L1D LOAD      ACCESS:   39801264  HIT:   37236942  MISS:    2564322
L1D RFO       ACCESS:   27402358  HIT:   27052786  MISS:     349572
L1D PREFETCH  ACCESS:  153792563  HIT:  144324067  MISS:    9468496
L1D WRITEBACK ACCESS:          0  HIT:          0  MISS:          0
L1D PREFETCH  REQUESTED: 1736829664  ISSUED:  201844566  USEFUL:    2184144  USELESS:    9018262
L1D AVERAGE MISS LATENCY: 15.6175 cycles
L1I TOTAL     ACCESS:   43878926  HIT:   42985115  MISS:     893811
L1I LOAD      ACCESS:   43354102  HIT:   42788545  MISS:     565557
L1I RFO       ACCESS:          0  HIT:          0  MISS:          0
L1I PREFETCH  ACCESS:     524824  HIT:     196570  MISS:     328254
L1I WRITEBACK ACCESS:          0  HIT:          0  MISS:          0
L1I PREFETCH  REQUESTED:    1550137  ISSUED:    1550137  USEFUL:     289866  USELESS:     139568
L1I AVERAGE MISS LATENCY: 12.4672 cycles
L2C TOTAL     ACCESS:   13901470  HIT:   13894543  MISS:       6927
L2C LOAD      ACCESS:    2549345  HIT:    2548350  MISS:        995
L2C RFO       ACCESS:     346452  HIT:     346158  MISS:        294
L2C PREFETCH  ACCESS:   10385813  HIT:   10380175  MISS:       5638
L2C WRITEBACK ACCESS:     619860  HIT:     619860  MISS:          0
L2C PREFETCH  REQUESTED:     703318  ISSUED:     703073  USEFUL:       2725  USELESS:       4362
L2C AVERAGE MISS LATENCY: 54.5193 cycles
LLC TOTAL     ACCESS:     814970  HIT:     812199  MISS:       2771
LLC LOAD      ACCESS:        992  HIT:        844  MISS:        148
LLC RFO       ACCESS:        294  HIT:        136  MISS:        158
LLC PREFETCH  ACCESS:     813455  HIT:     810991  MISS:       2464
LLC WRITEBACK ACCESS:        229  HIT:        228  MISS:          1
LLC PREFETCH  REQUESTED:     558110  ISSUED:     549004  USEFUL:        435  USELESS:         48
LLC AVERAGE MISS LATENCY: 148.219 cycles
Major fault: 0 Minor fault: 242
CPU 0 L1D stream prefetcher final stats

L2C Signature Path Prefetcher final stats
LLC Next Line Prefetcher Final Stats: none

DRAM Statistics
 CHANNEL 0
 RQ ROW_BUFFER_HIT:       1125  ROW_BUFFER_MISS:       1645
 DBUS_CONGESTED:       1078
 WQ ROW_BUFFER_HIT:          0  ROW_BUFFER_MISS:          0  FULL:          0

 AVG_CONGESTED_CYCLE: 6

CPU 0 Branch Prediction Accuracy: 99.7498% MPKI: 0.37001 Average ROB Occupancy at Mispredict: 244.179

Branch types
NOT_BRANCH: 170417206 85.2086%
BRANCH_DIRECT_JUMP: 1993409 0.996704%
BRANCH_INDIRECT: 43848 0.021924%
BRANCH_CONDITIONAL: 18138844 9.06942%
BRANCH_DIRECT_CALL: 3391304 1.69565%
BRANCH_INDIRECT_CALL: 1312033 0.656016%
BRANCH_RETURN: 4703339 2.35167%
BRANCH_OTHER: 0 0%

