
*** ChampSim Multicore Out-of-Order Simulator ***

Warmup Instructions: 50000000
Simulation Instructions: 200000000
Number of CPUs: 1
LLC sets: 2048
LLC ways: 16
Off-chip DRAM Size: 4096 MB Channels: 1 Width: 64-bit Data Rate: 3200 MT/s

CPU 0 runs /scratch/vsgirelli/ChampSim/trabalho_traces//401.bzip2-38B.champsimtrace.xz
CPU 0 Bimodal branch predictor
CPU 0 L1D next line prefetcher
Preftching instruction 1
Preftching instruction 2
Preftching instruction 1
Preftching instruction 2
Preftching instruction 1
Preftching instruction 2
Preftching instruction 1
Preftching instruction 2
Preftching instruction 1
Preftching instruction 2
Preftching instruction 1
Preftching instruction 2
Preftching instruction 1
Preftching instruction 2
Preftching instruction 1
Preftching instruction 2
Heartbeat CPU 0 instructions: 10000001 cycles: 2924821 heartbeat IPC: 3.41901 cumulative IPC: 3.41901 (Simulation time: 0 hr 0 min 19 sec) 
Preftching instruction 1
Preftching instruction 2
Preftching instruction 1
Preftching instruction 2
Preftching instruction 1
Preftching instruction 2
Preftching instruction 1
Preftching instruction 2
Preftching instruction 1
Preftching instruction 2
Preftching instruction 1
Preftching instruction 2
Preftching instruction 1
Preftching instruction 2
Preftching instruction 1
Preftching instruction 2
Preftching instruction 1
Preftching instruction 2
Preftching instruction 1
Preftching instruction 2
Preftching instruction 1
Preftching instruction 2
Preftching instruction 1
Preftching instruction 2
Preftching instruction 1
Preftching instruction 2
Preftching instruction 1
Preftching instruction 2
Preftching instruction 1
Preftching instruction 2
Preftching instruction 1
Preftching instruction 2
Preftching instruction 1
Preftching instruction 2
Preftching instruction 1
Preftching instruction 2
Preftching instruction 1
Preftching instruction 2
Preftching instruction 1
Preftching instruction 2
Preftching instruction 1
Preftching instruction 2
Preftching instruction 1
Preftching instruction 2
Preftching instruction 1
Preftching instruction 2
Preftching instruction 1
Preftching instruction 2
Preftching instruction 1
Preftching instruction 2
Preftching instruction 1
Preftching instruction 2
Preftching instruction 1
Preftching instruction 2
Preftching instruction 1
Preftching instruction 2
Preftching instruction 1
Preftching instruction 2
Preftching instruction 1
Preftching instruction 2
Preftching instruction 1
Preftching instruction 2
Preftching instruction 1
Preftching instruction 2
Preftching instruction 1
Preftching instruction 2
Preftching instruction 1
Preftching instruction 2
Preftching instruction 1
Preftching instruction 2
Preftching instruction 1
Preftching instruction 2
Preftching instruction 1
Preftching instruction 2
Preftching instruction 1
Preftching instruction 2
Preftching instruction 1
Preftching instruction 2
Preftching instruction 1
Preftching instruction 2
Preftching instruction 1
Preftching instruction 2
Preftching instruction 1
Preftching instruction 2
Preftching instruction 1
Preftching instruction 2
Preftching instruction 1
Preftching instruction 2
Preftching instruction 1
Preftching instruction 2
Preftching instruction 1
Preftching instruction 2
Preftching instruction 1
Preftching instruction 2
Preftching instruction 1
Preftching instruction 2
Preftching instruction 1
Preftching instruction 2
Preftching instruction 1
Preftching instruction 2
Preftching instruction 1
Preftching instruction 2
Preftching instruction 1
Preftching instruction 2
Preftching instruction 1
Preftching instruction 2
Preftching instruction 1
Preftching instruction 2
Preftching instruction 1
Preftching instruction 2
Preftching instruction 1
Preftching instruction 2
Preftching instruction 1
Preftching instruction 2
Preftching instruction 1
Preftching instruction 2
Preftching instruction 1
Preftching instruction 2
Preftching instruction 1
Preftching instruction 2
Preftching instruction 1
Preftching instruction 2
Preftching instruction 1
Preftching instruction 2
Preftching instruction 1
Preftching instruction 2
Preftching instruction 1
Preftching instruction 2
Preftching instruction 1
Preftching instruction 2
Preftching instruction 1
Preftching instruction 2
Preftching instruction 1
Preftching instruction 2
Preftching instruction 1
Preftching instruction 2
Preftching instruction 1
Preftching instruction 2
Preftching instruction 1
Preftching instruction 2
Preftching instruction 1
Preftching instruction 2
Preftching instruction 1
Preftching instruction 2
Preftching instruction 1
Preftching instruction 2
Preftching instruction 1
Preftching instruction 2
Preftching instruction 1
Preftching instruction 2
Preftching instruction 1
Preftching instruction 2
Preftching instruction 1
Preftching instruction 2
Preftching instruction 1
Preftching instruction 2
Preftching instruction 1
Preftching instruction 2
Preftching instruction 1
Preftching instruction 2
Preftching instruction 1
Preftching instruction 2
Preftching instruction 1
Preftching instruction 2
Preftching instruction 1
Preftching instruction 2
Preftching instruction 1
Preftching instruction 2
Preftching instruction 1
Preftching instruction 2
Preftching instruction 1
Preftching instruction 2
Preftching instruction 1
Preftching instruction 2
Preftching instruction 1
Preftching instruction 2
Preftching instruction 1
Preftching instruction 2
Preftching instruction 1
Preftching instruction 2
Preftching instruction 1
Preftching instruction 2
Preftching instruction 1
Preftching instruction 2
Preftching instruction 1
Preftching instruction 2
Preftching instruction 1
Preftching instruction 2
Preftching instruction 1
Preftching instruction 2
Preftching instruction 1
Preftching instruction 2
Preftching instruction 1
Preftching instruction 2
Preftching instruction 1
Preftching instruction 2
Preftching instruction 1
Preftching instruction 2
Preftching instruction 1
Preftching instruction 2
Preftching instruction 1
Preftching instruction 2
Preftching instruction 1
Preftching instruction 2
Preftching instruction 1
Preftching instruction 2
Preftching instruction 1
Preftching instruction 2
Preftching instruction 1
Preftching instruction 2
Preftching instruction 1
Preftching instruction 2
Preftching instruction 1
Preftching instruction 2
Heartbeat CPU 0 instructions: 20000003 cycles: 6823651 heartbeat IPC: 2.56487 cumulative IPC: 2.93098 (Simulation time: 0 hr 0 min 48 sec) 
Preftching instruction 1
Preftching instruction 2
Preftching instruction 1
Preftching instruction 2
Preftching instruction 1
Preftching instruction 2
Preftching instruction 1
Preftching instruction 2
Preftching instruction 1
Preftching instruction 2
Preftching instruction 1
Preftching instruction 2
Preftching instruction 1
Preftching instruction 2
Preftching instruction 1
Preftching instruction 2
Preftching instruction 1
Preftching instruction 2
Preftching instruction 1
Preftching instruction 2
Preftching instruction 1
Preftching instruction 2
Preftching instruction 1
Preftching instruction 2
Preftching instruction 1
Preftching instruction 2
Preftching instruction 1
Preftching instruction 2
Preftching instruction 1
Preftching instruction 2
Preftching instruction 1
Preftching instruction 2
Heartbeat CPU 0 instructions: 30000001 cycles: 11662290 heartbeat IPC: 2.0667 cumulative IPC: 2.57239 (Simulation time: 0 hr 1 min 23 sec) 
Preftching instruction 1
Preftching instruction 2
Preftching instruction 1
Preftching instruction 2
Preftching instruction 1
Preftching instruction 2
Preftching instruction 1
Preftching instruction 2
Preftching instruction 1
Preftching instruction 2
Preftching instruction 1
Preftching instruction 2
Preftching instruction 1
Preftching instruction 2
Preftching instruction 1
Preftching instruction 2
Preftching instruction 1
Preftching instruction 2
Preftching instruction 1
Preftching instruction 2
Preftching instruction 1
Preftching instruction 2
Preftching instruction 1
Preftching instruction 2
Preftching instruction 1
Preftching instruction 2
Preftching instruction 1
Preftching instruction 2
Preftching instruction 1
Preftching instruction 2
Preftching instruction 1
Preftching instruction 2
Preftching instruction 1
Preftching instruction 2
Preftching instruction 1
Preftching instruction 2
Preftching instruction 1
Preftching instruction 2
Preftching instruction 1
Preftching instruction 2
Preftching instruction 1
Preftching instruction 2
Preftching instruction 1
Preftching instruction 2
Preftching instruction 1
Preftching instruction 2
Preftching instruction 1
Preftching instruction 2
Preftching instruction 1
Preftching instruction 2
Preftching instruction 1
Preftching instruction 2
Preftching instruction 1
Preftching instruction 2
Preftching instruction 1
Preftching instruction 2
Preftching instruction 1
Preftching instruction 2
Preftching instruction 1
Preftching instruction 2
Preftching instruction 1
Preftching instruction 2
Preftching instruction 1
Preftching instruction 2
Preftching instruction 1
Preftching instruction 2
Heartbeat CPU 0 instructions: 40000001 cycles: 15801984 heartbeat IPC: 2.41564 cumulative IPC: 2.53133 (Simulation time: 0 hr 1 min 55 sec) 
Preftching instruction 1
Preftching instruction 2
Preftching instruction 1
Preftching instruction 2
Preftching instruction 1
Preftching instruction 2
Preftching instruction 1
Preftching instruction 2
Preftching instruction 1
Preftching instruction 2
Preftching instruction 1
Preftching instruction 2
Preftching instruction 1
Preftching instruction 2
Preftching instruction 1
Preftching instruction 2
Preftching instruction 1
Preftching instruction 2
Preftching instruction 1
Preftching instruction 2
Preftching instruction 1
Preftching instruction 2
Preftching instruction 1
Preftching instruction 2
Preftching instruction 1
Preftching instruction 2
Preftching instruction 1
Preftching instruction 2
Preftching instruction 1
Preftching instruction 2
Preftching instruction 1
Preftching instruction 2
Preftching instruction 1
Preftching instruction 2
Preftching instruction 1
Preftching instruction 2
Preftching instruction 1
Preftching instruction 2
Preftching instruction 1
Preftching instruction 2
Preftching instruction 1
Preftching instruction 2
Preftching instruction 1
Preftching instruction 2
Preftching instruction 1
Preftching instruction 2
Preftching instruction 1
Preftching instruction 2
Preftching instruction 1
Preftching instruction 2
Preftching instruction 1
Preftching instruction 2
Preftching instruction 1
Preftching instruction 2
Preftching instruction 1
Preftching instruction 2
Preftching instruction 1
Preftching instruction 2
Preftching instruction 1
Preftching instruction 2
Preftching instruction 1
Preftching instruction 2
Preftching instruction 1
Preftching instruction 2
Preftching instruction 1
Preftching instruction 2
Preftching instruction 1
Preftching instruction 2
Preftching instruction 1
Preftching instruction 2
Preftching instruction 1
Preftching instruction 2
Preftching instruction 1
Preftching instruction 2
Preftching instruction 1
Preftching instruction 2
Preftching instruction 1
Preftching instruction 2
Preftching instruction 1
Preftching instruction 2
Preftching instruction 1
Preftching instruction 2
Preftching instruction 1
Preftching instruction 2
Preftching instruction 1
Preftching instruction 2
Preftching instruction 1
Preftching instruction 2
Preftching instruction 1
Preftching instruction 2
Preftching instruction 1
Preftching instruction 2
Preftching instruction 1
Preftching instruction 2
Preftching instruction 1
Preftching instruction 2
Preftching instruction 1
Preftching instruction 2
Preftching instruction 1
Preftching instruction 2
Preftching instruction 1
Preftching instruction 2
Preftching instruction 1
Preftching instruction 2
Preftching instruction 1
Preftching instruction 2
Preftching instruction 1
Preftching instruction 2
Preftching instruction 1
Preftching instruction 2
Preftching instruction 1
Preftching instruction 2
Preftching instruction 1
Preftching instruction 2
Preftching instruction 1
Preftching instruction 2
Preftching instruction 1
Preftching instruction 2
Preftching instruction 1
Preftching instruction 2
Preftching instruction 1
Preftching instruction 2
Preftching instruction 1
Preftching instruction 2
Preftching instruction 1
Preftching instruction 2
Preftching instruction 1
Preftching instruction 2
Preftching instruction 1
Preftching instruction 2
Heartbeat CPU 0 instructions: 50000003 cycles: 19402580 heartbeat IPC: 2.77732 cumulative IPC: 2.57698 (Simulation time: 0 hr 2 min 26 sec) 

Warmup complete CPU 0 instructions: 50000003 cycles: 19402580 (Simulation time: 0 hr 2 min 26 sec) 

Heartbeat CPU 0 instructions: 60000000 cycles: 25897069 heartbeat IPC: 1.53977 cumulative IPC: 1.53977 (Simulation time: 0 hr 2 min 52 sec) 
Heartbeat CPU 0 instructions: 70000000 cycles: 32435460 heartbeat IPC: 1.52943 cumulative IPC: 1.53458 (Simulation time: 0 hr 3 min 17 sec) 
Preftching instruction 1
Preftching instruction 2
Preftching instruction 1
Preftching instruction 2
Preftching instruction 1
Preftching instruction 2
Preftching instruction 1
Preftching instruction 2
Preftching instruction 1
Preftching instruction 2
Preftching instruction 1
Preftching instruction 2
Preftching instruction 1
Preftching instruction 2
Preftching instruction 1
Preftching instruction 2
Preftching instruction 1
Preftching instruction 2
Preftching instruction 1
Preftching instruction 2
Preftching instruction 1
Preftching instruction 2
Preftching instruction 1
Preftching instruction 2
Preftching instruction 1
Preftching instruction 2
Preftching instruction 1
Preftching instruction 2
Preftching instruction 1
Preftching instruction 2
Preftching instruction 1
Preftching instruction 2
Preftching instruction 1
Preftching instruction 2
Preftching instruction 1
Preftching instruction 2
Preftching instruction 1
Preftching instruction 2
Preftching instruction 1
Preftching instruction 2
Preftching instruction 1
Preftching instruction 2
Preftching instruction 1
Preftching instruction 2
Preftching instruction 1
Preftching instruction 2
Preftching instruction 1
Preftching instruction 2
Heartbeat CPU 0 instructions: 80000002 cycles: 38834442 heartbeat IPC: 1.56275 cumulative IPC: 1.54386 (Simulation time: 0 hr 3 min 41 sec) 
Preftching instruction 1
Preftching instruction 2
Preftching instruction 1
Preftching instruction 2
Preftching instruction 1
Preftching instruction 2
Preftching instruction 1
Preftching instruction 2
Preftching instruction 1
Preftching instruction 2
Preftching instruction 1
Preftching instruction 2
Preftching instruction 1
Preftching instruction 2
Preftching instruction 1
Preftching instruction 2
Preftching instruction 1
Preftching instruction 2
Preftching instruction 1
Preftching instruction 2
Preftching instruction 1
Preftching instruction 2
Preftching instruction 1
Preftching instruction 2
Preftching instruction 1
Preftching instruction 2
Preftching instruction 1
Preftching instruction 2
Preftching instruction 1
Preftching instruction 2
Preftching instruction 1
Preftching instruction 2
Preftching instruction 1
Preftching instruction 2
Preftching instruction 1
Preftching instruction 2
Preftching instruction 1
Preftching instruction 2
Preftching instruction 1
Preftching instruction 2
Preftching instruction 1
Preftching instruction 2
Preftching instruction 1
Preftching instruction 2
Preftching instruction 1
Preftching instruction 2
Preftching instruction 1
Preftching instruction 2
Preftching instruction 1
Preftching instruction 2
Preftching instruction 1
Preftching instruction 2
Preftching instruction 1
Preftching instruction 2
Preftching instruction 1
Preftching instruction 2
Preftching instruction 1
Preftching instruction 2
Preftching instruction 1
Preftching instruction 2
Preftching instruction 1
Preftching instruction 2
Preftching instruction 1
Preftching instruction 2
Preftching instruction 1
Preftching instruction 2
Preftching instruction 1
Preftching instruction 2
Preftching instruction 1
Preftching instruction 2
Preftching instruction 1
Preftching instruction 2
Preftching instruction 1
Preftching instruction 2
Preftching instruction 1
Preftching instruction 2
Preftching instruction 1
Preftching instruction 2
Preftching instruction 1
Preftching instruction 2
Preftching instruction 1
Preftching instruction 2
Preftching instruction 1
Preftching instruction 2
Preftching instruction 1
Preftching instruction 2
Preftching instruction 1
Preftching instruction 2
Preftching instruction 1
Preftching instruction 2
Preftching instruction 1
Preftching instruction 2
Preftching instruction 1
Preftching instruction 2
Preftching instruction 1
Preftching instruction 2
Preftching instruction 1
Preftching instruction 2
Preftching instruction 1
Preftching instruction 2
Preftching instruction 1
Preftching instruction 2
Preftching instruction 1
Preftching instruction 2
Preftching instruction 1
Preftching instruction 2
Preftching instruction 1
Preftching instruction 2
Preftching instruction 1
Preftching instruction 2
Preftching instruction 1
Preftching instruction 2
Preftching instruction 1
Preftching instruction 2
Preftching instruction 1
Preftching instruction 2
Preftching instruction 1
Preftching instruction 2
Preftching instruction 1
Preftching instruction 2
Preftching instruction 1
Preftching instruction 2
Preftching instruction 1
Preftching instruction 2
Preftching instruction 1
Preftching instruction 2
Preftching instruction 1
Preftching instruction 2
Preftching instruction 1
Preftching instruction 2
Preftching instruction 1
Preftching instruction 2
Preftching instruction 1
Preftching instruction 2
Preftching instruction 1
Preftching instruction 2
Preftching instruction 1
Preftching instruction 2
Preftching instruction 1
Preftching instruction 2
Preftching instruction 1
Preftching instruction 2
Preftching instruction 1
Preftching instruction 2
Preftching instruction 1
Preftching instruction 2
Preftching instruction 1
Preftching instruction 2
Preftching instruction 1
Preftching instruction 2
Preftching instruction 1
Preftching instruction 2
Preftching instruction 1
Preftching instruction 2
Preftching instruction 1
Preftching instruction 2
Preftching instruction 1
Preftching instruction 2
Preftching instruction 1
Preftching instruction 2
Preftching instruction 1
Preftching instruction 2
Preftching instruction 1
Preftching instruction 2
Preftching instruction 1
Preftching instruction 2
Preftching instruction 1
Preftching instruction 2
Preftching instruction 1
Preftching instruction 2
Preftching instruction 1
Preftching instruction 2
Heartbeat CPU 0 instructions: 90000000 cycles: 47193122 heartbeat IPC: 1.19636 cumulative IPC: 1.43934 (Simulation time: 0 hr 4 min 5 sec) 
Heartbeat CPU 0 instructions: 100000003 cycles: 56604018 heartbeat IPC: 1.0626 cumulative IPC: 1.34403 (Simulation time: 0 hr 4 min 26 sec) 
Heartbeat CPU 0 instructions: 110000000 cycles: 66565418 heartbeat IPC: 1.00387 cumulative IPC: 1.27219 (Simulation time: 0 hr 4 min 47 sec) 
Heartbeat CPU 0 instructions: 120000001 cycles: 76571492 heartbeat IPC: 0.999393 cumulative IPC: 1.22444 (Simulation time: 0 hr 5 min 8 sec) 
Heartbeat CPU 0 instructions: 130000003 cycles: 86754382 heartbeat IPC: 0.98204 cumulative IPC: 1.18779 (Simulation time: 0 hr 5 min 29 sec) 
Heartbeat CPU 0 instructions: 140000000 cycles: 96925029 heartbeat IPC: 0.983221 cumulative IPC: 1.16095 (Simulation time: 0 hr 5 min 50 sec) 
Heartbeat CPU 0 instructions: 150000000 cycles: 106984404 heartbeat IPC: 0.994098 cumulative IPC: 1.14179 (Simulation time: 0 hr 6 min 11 sec) 
Heartbeat CPU 0 instructions: 160000001 cycles: 117260953 heartbeat IPC: 0.973089 cumulative IPC: 1.12407 (Simulation time: 0 hr 6 min 32 sec) 
Heartbeat CPU 0 instructions: 170000001 cycles: 127885913 heartbeat IPC: 0.94118 cumulative IPC: 1.10616 (Simulation time: 0 hr 6 min 53 sec) 
Heartbeat CPU 0 instructions: 180000001 cycles: 138074497 heartbeat IPC: 0.981491 cumulative IPC: 1.09546 (Simulation time: 0 hr 7 min 14 sec) 
Preftching instruction 1
Preftching instruction 2
Preftching instruction 1
Preftching instruction 2
Heartbeat CPU 0 instructions: 190000000 cycles: 148030859 heartbeat IPC: 1.00438 cumulative IPC: 1.08841 (Simulation time: 0 hr 7 min 37 sec) 
Heartbeat CPU 0 instructions: 200000001 cycles: 156950959 heartbeat IPC: 1.12106 cumulative IPC: 1.09053 (Simulation time: 0 hr 7 min 53 sec) 
Heartbeat CPU 0 instructions: 210000002 cycles: 166139349 heartbeat IPC: 1.08833 cumulative IPC: 1.09039 (Simulation time: 0 hr 8 min 10 sec) 
Heartbeat CPU 0 instructions: 220000000 cycles: 178824656 heartbeat IPC: 0.788313 cumulative IPC: 1.06635 (Simulation time: 0 hr 8 min 43 sec) 
Heartbeat CPU 0 instructions: 230000003 cycles: 191448054 heartbeat IPC: 0.79218 cumulative IPC: 1.04623 (Simulation time: 0 hr 9 min 14 sec) 
Heartbeat CPU 0 instructions: 240000002 cycles: 200500145 heartbeat IPC: 1.10472 cumulative IPC: 1.04916 (Simulation time: 0 hr 9 min 36 sec) 
Heartbeat CPU 0 instructions: 250000003 cycles: 206933198 heartbeat IPC: 1.55447 cumulative IPC: 1.06649 (Simulation time: 0 hr 10 min 1 sec) 
Finished CPU 0 instructions: 200000000 cycles: 187530618 cumulative IPC: 1.06649 (Simulation time: 0 hr 10 min 1 sec) 

ChampSim completed all CPUs

Region of Interest Statistics

CPU 0 cumulative IPC: 1.06649 instructions: 200000000 cycles: 187530618
L1D TOTAL     ACCESS:   99995654  HIT:   96635649  MISS:    3360005
L1D LOAD      ACCESS:   38447512  HIT:   36976048  MISS:    1471464
L1D RFO       ACCESS:   24397116  HIT:   23860756  MISS:     536360
L1D PREFETCH  ACCESS:   37151026  HIT:   35798845  MISS:    1352181
L1D WRITEBACK ACCESS:          0  HIT:          0  MISS:          0
L1D PREFETCH  REQUESTED:   52084799  ISSUED:   51630637  USEFUL:     443535  USELESS:    1221001
L1D AVERAGE MISS LATENCY: 32.8502 cycles
L1I TOTAL     ACCESS:   34196875  HIT:   34196778  MISS:         97
L1I LOAD      ACCESS:   34196804  HIT:   34196757  MISS:         47
L1I RFO       ACCESS:          0  HIT:          0  MISS:          0
L1I PREFETCH  ACCESS:         71  HIT:         21  MISS:         50
L1I WRITEBACK ACCESS:          0  HIT:          0  MISS:          0
L1I PREFETCH  REQUESTED:        682  ISSUED:        682  USEFUL:        172  USELESS:          0
L1I AVERAGE MISS LATENCY: 201.113 cycles
L2C TOTAL     ACCESS:    4081431  HIT:    3090617  MISS:     990814
L2C LOAD      ACCESS:    1398058  HIT:    1105507  MISS:     292551
L2C RFO       ACCESS:     536195  HIT:     198345  MISS:     337850
L2C PREFETCH  ACCESS:    1425388  HIT:    1065467  MISS:     359921
L2C WRITEBACK ACCESS:     721790  HIT:     721298  MISS:        492
L2C PREFETCH  REQUESTED:          0  ISSUED:          0  USEFUL:     117603  USELESS:     316139
L2C AVERAGE MISS LATENCY: 67.3014 cycles
LLC TOTAL     ACCESS:    1398246  HIT:    1192953  MISS:     205293
LLC LOAD      ACCESS:     292549  HIT:     260574  MISS:      31975
LLC RFO       ACCESS:     337840  HIT:     246056  MISS:      91784
LLC PREFETCH  ACCESS:     359920  HIT:     279221  MISS:      80699
LLC WRITEBACK ACCESS:     407937  HIT:     407102  MISS:        835
LLC PREFETCH  REQUESTED:          0  ISSUED:          0  USEFUL:      23315  USELESS:      73388
LLC AVERAGE MISS LATENCY: 180.018 cycles
Major fault: 0 Minor fault: 1206
CPU 0 L1D next line prefetcher final stats

DRAM Statistics
 CHANNEL 0
 RQ ROW_BUFFER_HIT:      51909  ROW_BUFFER_MISS:     152407
 DBUS_CONGESTED:      75373
 WQ ROW_BUFFER_HIT:      48505  ROW_BUFFER_MISS:      81274  FULL:          0

 AVG_CONGESTED_CYCLE: 6

CPU 0 Branch Prediction Accuracy: 90.8673% MPKI: 13.1804 Average ROB Occupancy at Mispredict: 20.1551

Branch types
NOT_BRANCH: 171135661 85.5678%
BRANCH_DIRECT_JUMP: 2579339 1.28967%
BRANCH_INDIRECT: 0 0%
BRANCH_CONDITIONAL: 24284235 12.1421%
BRANCH_DIRECT_CALL: 1000418 0.500209%
BRANCH_INDIRECT_CALL: 0 0%
BRANCH_RETURN: 1000419 0.500209%
BRANCH_OTHER: 0 0%

