
*** ChampSim Multicore Out-of-Order Simulator ***

Warmup Instructions: 50000000
Simulation Instructions: 200000000
Number of CPUs: 1
LLC sets: 2048
LLC ways: 16
Off-chip DRAM Size: 4096 MB Channels: 1 Width: 64-bit Data Rate: 3200 MT/s

CPU 0 runs /scratch/vsgirelli/ChampSim/trabalho_traces//454.calculix-460B.champsimtrace.xz
CPU 0 Bimodal branch predictor
CPU 0 L1D next line prefetcher
Preftching instruction 1
Preftching instruction 2
Preftching instruction 1
Preftching instruction 2
Preftching instruction 1
Preftching instruction 2
Preftching instruction 1
Preftching instruction 2
Preftching instruction 1
Preftching instruction 2
Preftching instruction 1
Preftching instruction 2
Preftching instruction 1
Preftching instruction 2
Preftching instruction 1
Preftching instruction 2
Preftching instruction 1
Preftching instruction 2
Preftching instruction 1
Preftching instruction 2
Preftching instruction 1
Preftching instruction 2
Preftching instruction 1
Preftching instruction 2
Preftching instruction 1
Preftching instruction 2
Preftching instruction 1
Preftching instruction 2
Preftching instruction 1
Preftching instruction 2
Preftching instruction 1
Preftching instruction 2
Preftching instruction 1
Preftching instruction 2
Preftching instruction 1
Preftching instruction 2
Preftching instruction 1
Preftching instruction 2
Preftching instruction 1
Preftching instruction 2
Preftching instruction 1
Preftching instruction 2
Preftching instruction 1
Preftching instruction 2
Preftching instruction 1
Preftching instruction 2
Preftching instruction 1
Preftching instruction 2
Preftching instruction 1
Preftching instruction 2
Preftching instruction 1
Preftching instruction 2
Preftching instruction 1
Preftching instruction 2
Preftching instruction 1
Preftching instruction 2
Preftching instruction 1
Preftching instruction 2
Preftching instruction 1
Preftching instruction 2
Preftching instruction 1
Preftching instruction 2
Preftching instruction 1
Preftching instruction 2
Preftching instruction 1
Preftching instruction 2
Preftching instruction 1
Preftching instruction 2
Preftching instruction 1
Preftching instruction 2
Preftching instruction 1
Preftching instruction 2
Preftching instruction 1
Preftching instruction 2
Preftching instruction 1
Preftching instruction 2
Preftching instruction 1
Preftching instruction 2
Preftching instruction 1
Preftching instruction 2
Preftching instruction 1
Preftching instruction 2
Preftching instruction 1
Preftching instruction 2
Preftching instruction 1
Preftching instruction 2
Preftching instruction 1
Preftching instruction 2
Preftching instruction 1
Preftching instruction 2
Preftching instruction 1
Preftching instruction 2
Preftching instruction 1
Preftching instruction 2
Preftching instruction 1
Preftching instruction 2
Preftching instruction 1
Preftching instruction 2
Preftching instruction 1
Preftching instruction 2
Preftching instruction 1
Preftching instruction 2
Preftching instruction 1
Preftching instruction 2
Preftching instruction 1
Preftching instruction 2
Preftching instruction 1
Preftching instruction 2
Preftching instruction 1
Preftching instruction 2
Preftching instruction 1
Preftching instruction 2
Preftching instruction 1
Preftching instruction 2
Preftching instruction 1
Preftching instruction 2
Preftching instruction 1
Preftching instruction 2
Preftching instruction 1
Preftching instruction 2
Preftching instruction 1
Preftching instruction 2
Preftching instruction 1
Preftching instruction 2
Preftching instruction 1
Preftching instruction 2
Preftching instruction 1
Preftching instruction 2
Preftching instruction 1
Preftching instruction 2
Preftching instruction 1
Preftching instruction 2
Preftching instruction 1
Preftching instruction 2
Preftching instruction 1
Preftching instruction 2
Preftching instruction 1
Preftching instruction 2
Preftching instruction 1
Preftching instruction 2
Preftching instruction 1
Preftching instruction 2
Preftching instruction 1
Preftching instruction 2
Preftching instruction 1
Preftching instruction 2
Preftching instruction 1
Preftching instruction 2
Preftching instruction 1
Preftching instruction 2
Preftching instruction 1
Preftching instruction 2
Preftching instruction 1
Preftching instruction 2
Preftching instruction 1
Preftching instruction 2
Preftching instruction 1
Preftching instruction 2
Preftching instruction 1
Preftching instruction 2
Preftching instruction 1
Preftching instruction 2
Preftching instruction 1
Preftching instruction 2
Preftching instruction 1
Preftching instruction 2
Preftching instruction 1
Preftching instruction 2
Preftching instruction 1
Preftching instruction 2
Preftching instruction 1
Preftching instruction 2
Preftching instruction 1
Preftching instruction 2
Preftching instruction 1
Preftching instruction 2
Preftching instruction 1
Preftching instruction 2
Preftching instruction 1
Preftching instruction 2
Preftching instruction 1
Preftching instruction 2
Preftching instruction 1
Preftching instruction 2
Preftching instruction 1
Preftching instruction 2
Preftching instruction 1
Preftching instruction 2
Preftching instruction 1
Preftching instruction 2
Preftching instruction 1
Preftching instruction 2
Preftching instruction 1
Preftching instruction 2
Preftching instruction 1
Preftching instruction 2
Preftching instruction 1
Preftching instruction 2
Preftching instruction 1
Preftching instruction 2
Preftching instruction 1
Preftching instruction 2
Preftching instruction 1
Preftching instruction 2
Preftching instruction 1
Preftching instruction 2
Preftching instruction 1
Preftching instruction 2
Heartbeat CPU 0 instructions: 10000003 cycles: 3064931 heartbeat IPC: 3.26272 cumulative IPC: 3.26272 (Simulation time: 0 hr 0 min 24 sec) 
Heartbeat CPU 0 instructions: 20000002 cycles: 6074033 heartbeat IPC: 3.32325 cumulative IPC: 3.29271 (Simulation time: 0 hr 0 min 47 sec) 
Heartbeat CPU 0 instructions: 30000002 cycles: 9120707 heartbeat IPC: 3.28227 cumulative IPC: 3.28922 (Simulation time: 0 hr 1 min 10 sec) 
Heartbeat CPU 0 instructions: 40000002 cycles: 12137940 heartbeat IPC: 3.31429 cumulative IPC: 3.29545 (Simulation time: 0 hr 1 min 34 sec) 
Heartbeat CPU 0 instructions: 50000003 cycles: 15169164 heartbeat IPC: 3.299 cumulative IPC: 3.29616 (Simulation time: 0 hr 1 min 57 sec) 

Warmup complete CPU 0 instructions: 50000003 cycles: 15169164 (Simulation time: 0 hr 1 min 57 sec) 

Heartbeat CPU 0 instructions: 60000000 cycles: 20693743 heartbeat IPC: 1.81009 cumulative IPC: 1.81009 (Simulation time: 0 hr 2 min 12 sec) 
Preftching instruction 1
Preftching instruction 2
Preftching instruction 1
Preftching instruction 2
Preftching instruction 1
Preftching instruction 2
Preftching instruction 1
Preftching instruction 2
Preftching instruction 1
Preftching instruction 2
Preftching instruction 1
Preftching instruction 2
Preftching instruction 1
Preftching instruction 2
Preftching instruction 1
Preftching instruction 2
Preftching instruction 1
Preftching instruction 2
Preftching instruction 1
Preftching instruction 2
Preftching instruction 1
Preftching instruction 2
Preftching instruction 1
Preftching instruction 2
Preftching instruction 1
Preftching instruction 2
Preftching instruction 1
Preftching instruction 2
Preftching instruction 1
Preftching instruction 2
Preftching instruction 1
Preftching instruction 2
Preftching instruction 1
Preftching instruction 2
Preftching instruction 1
Preftching instruction 2
Preftching instruction 1
Preftching instruction 2
Preftching instruction 1
Preftching instruction 2
Preftching instruction 1
Preftching instruction 2
Preftching instruction 1
Preftching instruction 2
Preftching instruction 1
Preftching instruction 2
Preftching instruction 1
Preftching instruction 2
Preftching instruction 1
Preftching instruction 2
Preftching instruction 1
Preftching instruction 2
Preftching instruction 1
Preftching instruction 2
Preftching instruction 1
Preftching instruction 2
Preftching instruction 1
Preftching instruction 2
Preftching instruction 1
Preftching instruction 2
Preftching instruction 1
Preftching instruction 2
Preftching instruction 1
Preftching instruction 2
Preftching instruction 1
Preftching instruction 2
Preftching instruction 1
Preftching instruction 2
Preftching instruction 1
Preftching instruction 2
Preftching instruction 1
Preftching instruction 2
Preftching instruction 1
Preftching instruction 2
Preftching instruction 1
Preftching instruction 2
Preftching instruction 1
Preftching instruction 2
Preftching instruction 1
Preftching instruction 2
Preftching instruction 1
Preftching instruction 2
Preftching instruction 1
Preftching instruction 2
Preftching instruction 1
Preftching instruction 2
Preftching instruction 1
Preftching instruction 2
Preftching instruction 1
Preftching instruction 2
Preftching instruction 1
Preftching instruction 2
Preftching instruction 1
Preftching instruction 2
Preftching instruction 1
Preftching instruction 2
Preftching instruction 1
Preftching instruction 2
Preftching instruction 1
Preftching instruction 2
Preftching instruction 1
Preftching instruction 2
Preftching instruction 1
Preftching instruction 2
Preftching instruction 1
Preftching instruction 2
Preftching instruction 1
Preftching instruction 2
Preftching instruction 1
Preftching instruction 2
Preftching instruction 1
Preftching instruction 2
Preftching instruction 1
Preftching instruction 2
Preftching instruction 1
Preftching instruction 2
Preftching instruction 1
Preftching instruction 2
Preftching instruction 1
Preftching instruction 2
Preftching instruction 1
Preftching instruction 2
Preftching instruction 1
Preftching instruction 2
Preftching instruction 1
Preftching instruction 2
Preftching instruction 1
Preftching instruction 2
Preftching instruction 1
Preftching instruction 2
Preftching instruction 1
Preftching instruction 2
Preftching instruction 1
Preftching instruction 2
Preftching instruction 1
Preftching instruction 2
Preftching instruction 1
Preftching instruction 2
Preftching instruction 1
Preftching instruction 2
Preftching instruction 1
Preftching instruction 2
Preftching instruction 1
Preftching instruction 2
Preftching instruction 1
Preftching instruction 2
Preftching instruction 1
Preftching instruction 2
Preftching instruction 1
Preftching instruction 2
Preftching instruction 1
Preftching instruction 2
Preftching instruction 1
Preftching instruction 2
Preftching instruction 1
Preftching instruction 2
Preftching instruction 1
Preftching instruction 2
Preftching instruction 1
Preftching instruction 2
Preftching instruction 1
Preftching instruction 2
Preftching instruction 1
Preftching instruction 2
Preftching instruction 1
Preftching instruction 2
Preftching instruction 1
Preftching instruction 2
Preftching instruction 1
Preftching instruction 2
Preftching instruction 1
Preftching instruction 2
Preftching instruction 1
Preftching instruction 2
Preftching instruction 1
Preftching instruction 2
Preftching instruction 1
Preftching instruction 2
Preftching instruction 1
Preftching instruction 2
Preftching instruction 1
Preftching instruction 2
Preftching instruction 1
Preftching instruction 2
Preftching instruction 1
Preftching instruction 2
Preftching instruction 1
Preftching instruction 2
Preftching instruction 1
Preftching instruction 2
Preftching instruction 1
Preftching instruction 2
Preftching instruction 1
Preftching instruction 2
Preftching instruction 1
Preftching instruction 2
Preftching instruction 1
Preftching instruction 2
Preftching instruction 1
Preftching instruction 2
Preftching instruction 1
Preftching instruction 2
Preftching instruction 1
Preftching instruction 2
Preftching instruction 1
Preftching instruction 2
Preftching instruction 1
Preftching instruction 2
Preftching instruction 1
Preftching instruction 2
Preftching instruction 1
Preftching instruction 2
Preftching instruction 1
Preftching instruction 2
Preftching instruction 1
Preftching instruction 2
Preftching instruction 1
Preftching instruction 2
Preftching instruction 1
Preftching instruction 2
Preftching instruction 1
Preftching instruction 2
Preftching instruction 1
Preftching instruction 2
Preftching instruction 1
Preftching instruction 2
Preftching instruction 1
Preftching instruction 2
Preftching instruction 1
Preftching instruction 2
Preftching instruction 1
Preftching instruction 2
Preftching instruction 1
Preftching instruction 2
Preftching instruction 1
Preftching instruction 2
Preftching instruction 1
Preftching instruction 2
Preftching instruction 1
Preftching instruction 2
Preftching instruction 1
Preftching instruction 2
Preftching instruction 1
Preftching instruction 2
Preftching instruction 1
Preftching instruction 2
Preftching instruction 1
Preftching instruction 2
Preftching instruction 1
Preftching instruction 2
Preftching instruction 1
Preftching instruction 2
Preftching instruction 1
Preftching instruction 2
Preftching instruction 1
Preftching instruction 2
Preftching instruction 1
Preftching instruction 2
Preftching instruction 1
Preftching instruction 2
Preftching instruction 1
Preftching instruction 2
Preftching instruction 1
Preftching instruction 2
Preftching instruction 1
Preftching instruction 2
Preftching instruction 1
Preftching instruction 2
Preftching instruction 1
Preftching instruction 2
Preftching instruction 1
Preftching instruction 2
Preftching instruction 1
Preftching instruction 2
Preftching instruction 1
Preftching instruction 2
Preftching instruction 1
Preftching instruction 2
Preftching instruction 1
Preftching instruction 2
Preftching instruction 1
Preftching instruction 2
Preftching instruction 1
Preftching instruction 2
Preftching instruction 1
Preftching instruction 2
Preftching instruction 1
Preftching instruction 2
Preftching instruction 1
Preftching instruction 2
Preftching instruction 1
Preftching instruction 2
Preftching instruction 1
Preftching instruction 2
Preftching instruction 1
Preftching instruction 2
Preftching instruction 1
Preftching instruction 2
Preftching instruction 1
Preftching instruction 2
Preftching instruction 1
Preftching instruction 2
Preftching instruction 1
Preftching instruction 2
Preftching instruction 1
Preftching instruction 2
Heartbeat CPU 0 instructions: 70000001 cycles: 28251596 heartbeat IPC: 1.32313 cumulative IPC: 1.52877 (Simulation time: 0 hr 2 min 31 sec) 
Heartbeat CPU 0 instructions: 80000002 cycles: 36172887 heartbeat IPC: 1.26242 cumulative IPC: 1.42832 (Simulation time: 0 hr 2 min 47 sec) 
Preftching instruction 1
Preftching instruction 2
Preftching instruction 1
Preftching instruction 2
Preftching instruction 1
Preftching instruction 2
Preftching instruction 1
Preftching instruction 2
Preftching instruction 1
Preftching instruction 2
Preftching instruction 1
Preftching instruction 2
Preftching instruction 1
Preftching instruction 2
Preftching instruction 1
Preftching instruction 2
Preftching instruction 1
Preftching instruction 2
Preftching instruction 1
Preftching instruction 2
Preftching instruction 1
Preftching instruction 2
Preftching instruction 1
Preftching instruction 2
Preftching instruction 1
Preftching instruction 2
Preftching instruction 1
Preftching instruction 2
Preftching instruction 1
Preftching instruction 2
Preftching instruction 1
Preftching instruction 2
Preftching instruction 1
Preftching instruction 2
Preftching instruction 1
Preftching instruction 2
Preftching instruction 1
Preftching instruction 2
Preftching instruction 1
Preftching instruction 2
Preftching instruction 1
Preftching instruction 2
Preftching instruction 1
Preftching instruction 2
Preftching instruction 1
Preftching instruction 2
Preftching instruction 1
Preftching instruction 2
Preftching instruction 1
Preftching instruction 2
Preftching instruction 1
Preftching instruction 2
Preftching instruction 1
Preftching instruction 2
Preftching instruction 1
Preftching instruction 2
Preftching instruction 1
Preftching instruction 2
Preftching instruction 1
Preftching instruction 2
Preftching instruction 1
Preftching instruction 2
Preftching instruction 1
Preftching instruction 2
Preftching instruction 1
Preftching instruction 2
Preftching instruction 1
Preftching instruction 2
Preftching instruction 1
Preftching instruction 2
Preftching instruction 1
Preftching instruction 2
Preftching instruction 1
Preftching instruction 2
Preftching instruction 1
Preftching instruction 2
Preftching instruction 1
Preftching instruction 2
Preftching instruction 1
Preftching instruction 2
Preftching instruction 1
Preftching instruction 2
Preftching instruction 1
Preftching instruction 2
Preftching instruction 1
Preftching instruction 2
Preftching instruction 1
Preftching instruction 2
Preftching instruction 1
Preftching instruction 2
Preftching instruction 1
Preftching instruction 2
Preftching instruction 1
Preftching instruction 2
Preftching instruction 1
Preftching instruction 2
Preftching instruction 1
Preftching instruction 2
Preftching instruction 1
Preftching instruction 2
Preftching instruction 1
Preftching instruction 2
Preftching instruction 1
Preftching instruction 2
Preftching instruction 1
Preftching instruction 2
Preftching instruction 1
Preftching instruction 2
Preftching instruction 1
Preftching instruction 2
Preftching instruction 1
Preftching instruction 2
Preftching instruction 1
Preftching instruction 2
Preftching instruction 1
Preftching instruction 2
Preftching instruction 1
Preftching instruction 2
Preftching instruction 1
Preftching instruction 2
Preftching instruction 1
Preftching instruction 2
Preftching instruction 1
Preftching instruction 2
Preftching instruction 1
Preftching instruction 2
Preftching instruction 1
Preftching instruction 2
Preftching instruction 1
Preftching instruction 2
Preftching instruction 1
Preftching instruction 2
Preftching instruction 1
Preftching instruction 2
Preftching instruction 1
Preftching instruction 2
Preftching instruction 1
Preftching instruction 2
Preftching instruction 1
Preftching instruction 2
Preftching instruction 1
Preftching instruction 2
Preftching instruction 1
Preftching instruction 2
Preftching instruction 1
Preftching instruction 2
Preftching instruction 1
Preftching instruction 2
Preftching instruction 1
Preftching instruction 2
Preftching instruction 1
Preftching instruction 2
Preftching instruction 1
Preftching instruction 2
Preftching instruction 1
Preftching instruction 2
Preftching instruction 1
Preftching instruction 2
Preftching instruction 1
Preftching instruction 2
Preftching instruction 1
Preftching instruction 2
Preftching instruction 1
Preftching instruction 2
Preftching instruction 1
Preftching instruction 2
Preftching instruction 1
Preftching instruction 2
Preftching instruction 1
Preftching instruction 2
Preftching instruction 1
Preftching instruction 2
Preftching instruction 1
Preftching instruction 2
Preftching instruction 1
Preftching instruction 2
Preftching instruction 1
Preftching instruction 2
Preftching instruction 1
Preftching instruction 2
Preftching instruction 1
Preftching instruction 2
Preftching instruction 1
Preftching instruction 2
Preftching instruction 1
Preftching instruction 2
Preftching instruction 1
Preftching instruction 2
Preftching instruction 1
Preftching instruction 2
Preftching instruction 1
Preftching instruction 2
Preftching instruction 1
Preftching instruction 2
Preftching instruction 1
Preftching instruction 2
Preftching instruction 1
Preftching instruction 2
Preftching instruction 1
Preftching instruction 2
Preftching instruction 1
Preftching instruction 2
Preftching instruction 1
Preftching instruction 2
Preftching instruction 1
Preftching instruction 2
Preftching instruction 1
Preftching instruction 2
Preftching instruction 1
Preftching instruction 2
Preftching instruction 1
Preftching instruction 2
Preftching instruction 1
Preftching instruction 2
Preftching instruction 1
Preftching instruction 2
Preftching instruction 1
Preftching instruction 2
Preftching instruction 1
Preftching instruction 2
Preftching instruction 1
Preftching instruction 2
Preftching instruction 1
Preftching instruction 2
Preftching instruction 1
Preftching instruction 2
Preftching instruction 1
Preftching instruction 2
Preftching instruction 1
Preftching instruction 2
Preftching instruction 1
Preftching instruction 2
Preftching instruction 1
Preftching instruction 2
Preftching instruction 1
Preftching instruction 2
Preftching instruction 1
Preftching instruction 2
Preftching instruction 1
Preftching instruction 2
Preftching instruction 1
Preftching instruction 2
Preftching instruction 1
Preftching instruction 2
Preftching instruction 1
Preftching instruction 2
Preftching instruction 1
Preftching instruction 2
Preftching instruction 1
Preftching instruction 2
Preftching instruction 1
Preftching instruction 2
Preftching instruction 1
Preftching instruction 2
Preftching instruction 1
Preftching instruction 2
Preftching instruction 1
Preftching instruction 2
Preftching instruction 1
Preftching instruction 2
Preftching instruction 1
Preftching instruction 2
Preftching instruction 1
Preftching instruction 2
Preftching instruction 1
Preftching instruction 2
Preftching instruction 1
Preftching instruction 2
Preftching instruction 1
Preftching instruction 2
Preftching instruction 1
Preftching instruction 2
Preftching instruction 1
Preftching instruction 2
Preftching instruction 1
Preftching instruction 2
Preftching instruction 1
Preftching instruction 2
Preftching instruction 1
Preftching instruction 2
Preftching instruction 1
Preftching instruction 2
Preftching instruction 1
Preftching instruction 2
Preftching instruction 1
Preftching instruction 2
Preftching instruction 1
Preftching instruction 2
Preftching instruction 1
Preftching instruction 2
Preftching instruction 1
Preftching instruction 2
Preftching instruction 1
Preftching instruction 2
Preftching instruction 1
Preftching instruction 2
Preftching instruction 1
Preftching instruction 2
Preftching instruction 1
Preftching instruction 2
Preftching instruction 1
Preftching instruction 2
Preftching instruction 1
Preftching instruction 2
Preftching instruction 1
Preftching instruction 2
Preftching instruction 1
Preftching instruction 2
Preftching instruction 1
Preftching instruction 2
Preftching instruction 1
Preftching instruction 2
Preftching instruction 1
Preftching instruction 2
Preftching instruction 1
Preftching instruction 2
Preftching instruction 1
Preftching instruction 2
Preftching instruction 1
Preftching instruction 2
Preftching instruction 1
Preftching instruction 2
Preftching instruction 1
Preftching instruction 2
Preftching instruction 1
Preftching instruction 2
Preftching instruction 1
Preftching instruction 2
Preftching instruction 1
Preftching instruction 2
Preftching instruction 1
Preftching instruction 2
Preftching instruction 1
Preftching instruction 2
Preftching instruction 1
Preftching instruction 2
Preftching instruction 1
Preftching instruction 2
Preftching instruction 1
Preftching instruction 2
Preftching instruction 1
Preftching instruction 2
Preftching instruction 1
Preftching instruction 2
Preftching instruction 1
Preftching instruction 2
Preftching instruction 1
Preftching instruction 2
Preftching instruction 1
Preftching instruction 2
Preftching instruction 1
Preftching instruction 2
Preftching instruction 1
Preftching instruction 2
Preftching instruction 1
Preftching instruction 2
Preftching instruction 1
Preftching instruction 2
Preftching instruction 1
Preftching instruction 2
Preftching instruction 1
Preftching instruction 2
Preftching instruction 1
Preftching instruction 2
Preftching instruction 1
Preftching instruction 2
Preftching instruction 1
Preftching instruction 2
Preftching instruction 1
Preftching instruction 2
Preftching instruction 1
Preftching instruction 2
Preftching instruction 1
Preftching instruction 2
Preftching instruction 1
Preftching instruction 2
Preftching instruction 1
Preftching instruction 2
Preftching instruction 1
Preftching instruction 2
Preftching instruction 1
Preftching instruction 2
Preftching instruction 1
Preftching instruction 2
Preftching instruction 1
Preftching instruction 2
Preftching instruction 1
Preftching instruction 2
Preftching instruction 1
Preftching instruction 2
Preftching instruction 1
Preftching instruction 2
Preftching instruction 1
Preftching instruction 2
Preftching instruction 1
Preftching instruction 2
Preftching instruction 1
Preftching instruction 2
Preftching instruction 1
Preftching instruction 2
Preftching instruction 1
Preftching instruction 2
Preftching instruction 1
Preftching instruction 2
Preftching instruction 1
Preftching instruction 2
Preftching instruction 1
Preftching instruction 2
Preftching instruction 1
Preftching instruction 2
Preftching instruction 1
Preftching instruction 2
Preftching instruction 1
Preftching instruction 2
Preftching instruction 1
Preftching instruction 2
Preftching instruction 1
Preftching instruction 2
Preftching instruction 1
Preftching instruction 2
Preftching instruction 1
Preftching instruction 2
Preftching instruction 1
Preftching instruction 2
Preftching instruction 1
Preftching instruction 2
Preftching instruction 1
Preftching instruction 2
Preftching instruction 1
Preftching instruction 2
Preftching instruction 1
Preftching instruction 2
Preftching instruction 1
Preftching instruction 2
Preftching instruction 1
Preftching instruction 2
Preftching instruction 1
Preftching instruction 2
Preftching instruction 1
Preftching instruction 2
Preftching instruction 1
Preftching instruction 2
Preftching instruction 1
Preftching instruction 2
Preftching instruction 1
Preftching instruction 2
Preftching instruction 1
Preftching instruction 2
Preftching instruction 1
Preftching instruction 2
Preftching instruction 1
Preftching instruction 2
Preftching instruction 1
Preftching instruction 2
Preftching instruction 1
Preftching instruction 2
Preftching instruction 1
Preftching instruction 2
Preftching instruction 1
Preftching instruction 2
Preftching instruction 1
Preftching instruction 2
Preftching instruction 1
Preftching instruction 2
Preftching instruction 1
Preftching instruction 2
Preftching instruction 1
Preftching instruction 2
Preftching instruction 1
Preftching instruction 2
Preftching instruction 1
Preftching instruction 2
Preftching instruction 1
Preftching instruction 2
Preftching instruction 1
Preftching instruction 2
Preftching instruction 1
Preftching instruction 2
Preftching instruction 1
Preftching instruction 2
Preftching instruction 1
Preftching instruction 2
Preftching instruction 1
Preftching instruction 2
Preftching instruction 1
Preftching instruction 2
Preftching instruction 1
Preftching instruction 2
Preftching instruction 1
Preftching instruction 2
Preftching instruction 1
Preftching instruction 2
Preftching instruction 1
Preftching instruction 2
Preftching instruction 1
Preftching instruction 2
Preftching instruction 1
Preftching instruction 2
Preftching instruction 1
Preftching instruction 2
Preftching instruction 1
Preftching instruction 2
Preftching instruction 1
Preftching instruction 2
Preftching instruction 1
Preftching instruction 2
Preftching instruction 1
Preftching instruction 2
Preftching instruction 1
Preftching instruction 2
Preftching instruction 1
Preftching instruction 2
Preftching instruction 1
Preftching instruction 2
Preftching instruction 1
Preftching instruction 2
Preftching instruction 1
Preftching instruction 2
Preftching instruction 1
Preftching instruction 2
Preftching instruction 1
Preftching instruction 2
Preftching instruction 1
Preftching instruction 2
Preftching instruction 1
Preftching instruction 2
Preftching instruction 1
Preftching instruction 2
Preftching instruction 1
Preftching instruction 2
Preftching instruction 1
Preftching instruction 2
Preftching instruction 1
Preftching instruction 2
Preftching instruction 1
Preftching instruction 2
Preftching instruction 1
Preftching instruction 2
Preftching instruction 1
Preftching instruction 2
Preftching instruction 1
Preftching instruction 2
Preftching instruction 1
Preftching instruction 2
Preftching instruction 1
Preftching instruction 2
Preftching instruction 1
Preftching instruction 2
Preftching instruction 1
Preftching instruction 2
Preftching instruction 1
Preftching instruction 2
Preftching instruction 1
Preftching instruction 2
Preftching instruction 1
Preftching instruction 2
Preftching instruction 1
Preftching instruction 2
Preftching instruction 1
Preftching instruction 2
Preftching instruction 1
Preftching instruction 2
Preftching instruction 1
Preftching instruction 2
Preftching instruction 1
Preftching instruction 2
Preftching instruction 1
Preftching instruction 2
Preftching instruction 1
Preftching instruction 2
Preftching instruction 1
Preftching instruction 2
Preftching instruction 1
Preftching instruction 2
Preftching instruction 1
Preftching instruction 2
Preftching instruction 1
Preftching instruction 2
Preftching instruction 1
Preftching instruction 2
Preftching instruction 1
Preftching instruction 2
Preftching instruction 1
Preftching instruction 2
Preftching instruction 1
Preftching instruction 2
Preftching instruction 1
Preftching instruction 2
Preftching instruction 1
Preftching instruction 2
Preftching instruction 1
Preftching instruction 2
Preftching instruction 1
Preftching instruction 2
Preftching instruction 1
Preftching instruction 2
Preftching instruction 1
Preftching instruction 2
Preftching instruction 1
Preftching instruction 2
Preftching instruction 1
Preftching instruction 2
Preftching instruction 1
Preftching instruction 2
Preftching instruction 1
Preftching instruction 2
Preftching instruction 1
Preftching instruction 2
Preftching instruction 1
Preftching instruction 2
Preftching instruction 1
Preftching instruction 2
Preftching instruction 1
Preftching instruction 2
Preftching instruction 1
Preftching instruction 2
Preftching instruction 1
Preftching instruction 2
Preftching instruction 1
Preftching instruction 2
Preftching instruction 1
Preftching instruction 2
Preftching instruction 1
Preftching instruction 2
Preftching instruction 1
Preftching instruction 2
Preftching instruction 1
Preftching instruction 2
Preftching instruction 1
Preftching instruction 2
Preftching instruction 1
Preftching instruction 2
Preftching instruction 1
Preftching instruction 2
Preftching instruction 1
Preftching instruction 2
Preftching instruction 1
Preftching instruction 2
Preftching instruction 1
Preftching instruction 2
Preftching instruction 1
Preftching instruction 2
Preftching instruction 1
Preftching instruction 2
Preftching instruction 1
Preftching instruction 2
Preftching instruction 1
Preftching instruction 2
Preftching instruction 1
Preftching instruction 2
Preftching instruction 1
Preftching instruction 2
Preftching instruction 1
Preftching instruction 2
Preftching instruction 1
Preftching instruction 2
Preftching instruction 1
Preftching instruction 2
Preftching instruction 1
Preftching instruction 2
Preftching instruction 1
Preftching instruction 2
Preftching instruction 1
Preftching instruction 2
Preftching instruction 1
Preftching instruction 2
Preftching instruction 1
Preftching instruction 2
Preftching instruction 1
Preftching instruction 2
Preftching instruction 1
Preftching instruction 2
Preftching instruction 1
Preftching instruction 2
Preftching instruction 1
Preftching instruction 2
Preftching instruction 1
Preftching instruction 2
Preftching instruction 1
Preftching instruction 2
Preftching instruction 1
Preftching instruction 2
Preftching instruction 1
Preftching instruction 2
Preftching instruction 1
Preftching instruction 2
Preftching instruction 1
Preftching instruction 2
Preftching instruction 1
Preftching instruction 2
Preftching instruction 1
Preftching instruction 2
Preftching instruction 1
Preftching instruction 2
Preftching instruction 1
Preftching instruction 2
Preftching instruction 1
Preftching instruction 2
Preftching instruction 1
Preftching instruction 2
Preftching instruction 1
Preftching instruction 2
Preftching instruction 1
Preftching instruction 2
Preftching instruction 1
Preftching instruction 2
Preftching instruction 1
Preftching instruction 2
Preftching instruction 1
Preftching instruction 2
Preftching instruction 1
Preftching instruction 2
Preftching instruction 1
Preftching instruction 2
Preftching instruction 1
Preftching instruction 2
Preftching instruction 1
Preftching instruction 2
Preftching instruction 1
Preftching instruction 2
Preftching instruction 1
Preftching instruction 2
Preftching instruction 1
Preftching instruction 2
Preftching instruction 1
Preftching instruction 2
Preftching instruction 1
Preftching instruction 2
Preftching instruction 1
Preftching instruction 2
Preftching instruction 1
Preftching instruction 2
Preftching instruction 1
Preftching instruction 2
Preftching instruction 1
Preftching instruction 2
Preftching instruction 1
Preftching instruction 2
Preftching instruction 1
Preftching instruction 2
Preftching instruction 1
Preftching instruction 2
Preftching instruction 1
Preftching instruction 2
Preftching instruction 1
Preftching instruction 2
Preftching instruction 1
Preftching instruction 2
Preftching instruction 1
Preftching instruction 2
Preftching instruction 1
Preftching instruction 2
Heartbeat CPU 0 instructions: 90000000 cycles: 42498078 heartbeat IPC: 1.58098 cumulative IPC: 1.46365 (Simulation time: 0 hr 3 min 2 sec) 
Heartbeat CPU 0 instructions: 100000000 cycles: 47689402 heartbeat IPC: 1.92629 cumulative IPC: 1.5375 (Simulation time: 0 hr 3 min 17 sec) 
Preftching instruction 1
Preftching instruction 2
Preftching instruction 1
Preftching instruction 2
Preftching instruction 1
Preftching instruction 2
Preftching instruction 1
Preftching instruction 2
Preftching instruction 1
Preftching instruction 2
Heartbeat CPU 0 instructions: 110000000 cycles: 52947489 heartbeat IPC: 1.90183 cumulative IPC: 1.58821 (Simulation time: 0 hr 3 min 31 sec) 
Heartbeat CPU 0 instructions: 120000003 cycles: 58367592 heartbeat IPC: 1.84498 cumulative IPC: 1.62043 (Simulation time: 0 hr 3 min 46 sec) 
Heartbeat CPU 0 instructions: 130000003 cycles: 63834184 heartbeat IPC: 1.82929 cumulative IPC: 1.64389 (Simulation time: 0 hr 4 min 2 sec) 
Heartbeat CPU 0 instructions: 140000003 cycles: 69144424 heartbeat IPC: 1.88315 cumulative IPC: 1.66743 (Simulation time: 0 hr 4 min 17 sec) 
Heartbeat CPU 0 instructions: 150000001 cycles: 74341196 heartbeat IPC: 1.92427 cumulative IPC: 1.68999 (Simulation time: 0 hr 4 min 31 sec) 
Heartbeat CPU 0 instructions: 160000002 cycles: 79603080 heartbeat IPC: 1.90046 cumulative IPC: 1.70718 (Simulation time: 0 hr 4 min 46 sec) 
Heartbeat CPU 0 instructions: 170000001 cycles: 84881122 heartbeat IPC: 1.89464 cumulative IPC: 1.72137 (Simulation time: 0 hr 5 min 0 sec) 
Heartbeat CPU 0 instructions: 180000001 cycles: 90322657 heartbeat IPC: 1.83772 cumulative IPC: 1.72979 (Simulation time: 0 hr 5 min 15 sec) 
Heartbeat CPU 0 instructions: 190000000 cycles: 95787299 heartbeat IPC: 1.82995 cumulative IPC: 1.73658 (Simulation time: 0 hr 5 min 31 sec) 
Heartbeat CPU 0 instructions: 200000000 cycles: 101188849 heartbeat IPC: 1.85132 cumulative IPC: 1.74379 (Simulation time: 0 hr 5 min 46 sec) 
Heartbeat CPU 0 instructions: 210000002 cycles: 106770131 heartbeat IPC: 1.7917 cumulative IPC: 1.74671 (Simulation time: 0 hr 6 min 3 sec) 
Heartbeat CPU 0 instructions: 220000000 cycles: 112397776 heartbeat IPC: 1.77694 cumulative IPC: 1.74846 (Simulation time: 0 hr 6 min 19 sec) 
Heartbeat CPU 0 instructions: 230000003 cycles: 117656101 heartbeat IPC: 1.90175 cumulative IPC: 1.75632 (Simulation time: 0 hr 6 min 34 sec) 
Heartbeat CPU 0 instructions: 240000003 cycles: 123040785 heartbeat IPC: 1.85712 cumulative IPC: 1.76135 (Simulation time: 0 hr 6 min 49 sec) 
Heartbeat CPU 0 instructions: 250000000 cycles: 128326490 heartbeat IPC: 1.89189 cumulative IPC: 1.76745 (Simulation time: 0 hr 7 min 4 sec) 
Finished CPU 0 instructions: 200000001 cycles: 113157327 cumulative IPC: 1.76745 (Simulation time: 0 hr 7 min 4 sec) 

ChampSim completed all CPUs

Region of Interest Statistics

CPU 0 cumulative IPC: 1.76745 instructions: 200000001 cycles: 113157327
L1D TOTAL     ACCESS:   74185633  HIT:   71630352  MISS:    2555281
L1D LOAD      ACCESS:   35664572  HIT:   35166784  MISS:     497788
L1D RFO       ACCESS:    5167390  HIT:    5133310  MISS:      34080
L1D PREFETCH  ACCESS:   33353671  HIT:   31330258  MISS:    2023413
L1D WRITEBACK ACCESS:          0  HIT:          0  MISS:          0
L1D PREFETCH  REQUESTED:   45949119  ISSUED:   45431104  USEFUL:    2480990  USELESS:      55603
L1D AVERAGE MISS LATENCY: 26.8528 cycles
L1I TOTAL     ACCESS:   34283549  HIT:   34282861  MISS:        688
L1I LOAD      ACCESS:   34283086  HIT:   34282772  MISS:        314
L1I RFO       ACCESS:          0  HIT:          0  MISS:          0
L1I PREFETCH  ACCESS:        463  HIT:         89  MISS:        374
L1I WRITEBACK ACCESS:          0  HIT:          0  MISS:          0
L1I PREFETCH  REQUESTED:       1276  ISSUED:       1276  USEFUL:        204  USELESS:        107
L1I AVERAGE MISS LATENCY: 172.983 cycles
L2C TOTAL     ACCESS:    3066849  HIT:    2204012  MISS:     862837
L2C LOAD      ACCESS:     299699  HIT:     202863  MISS:      96836
L2C RFO       ACCESS:      34068  HIT:       3283  MISS:      30785
L2C PREFETCH  ACCESS:    2222199  HIT:    1489744  MISS:     732455
L2C WRITEBACK ACCESS:     510883  HIT:     508122  MISS:       2761
L2C PREFETCH  REQUESTED:          0  ISSUED:          0  USEFUL:       8284  USELESS:     796075
L2C AVERAGE MISS LATENCY: 58.2118 cycles
LLC TOTAL     ACCESS:    1113843  HIT:     923025  MISS:     190818
LLC LOAD      ACCESS:      96836  HIT:      72215  MISS:      24621
LLC RFO       ACCESS:      30785  HIT:      19895  MISS:      10890
LLC PREFETCH  ACCESS:     732455  HIT:     577407  MISS:     155048
LLC WRITEBACK ACCESS:     253767  HIT:     253508  MISS:        259
LLC PREFETCH  REQUESTED:          0  ISSUED:          0  USEFUL:      10998  USELESS:     167531
LLC AVERAGE MISS LATENCY: 127.032 cycles
Major fault: 0 Minor fault: 3395
CPU 0 L1D next line prefetcher final stats

DRAM Statistics
 CHANNEL 0
 RQ ROW_BUFFER_HIT:     136928  ROW_BUFFER_MISS:      53631
 DBUS_CONGESTED:      58600
 WQ ROW_BUFFER_HIT:      20635  ROW_BUFFER_MISS:       7435  FULL:          0

 AVG_CONGESTED_CYCLE: 5

CPU 0 Branch Prediction Accuracy: 98.7532% MPKI: 0.643275 Average ROB Occupancy at Mispredict: 28.8685

Branch types
NOT_BRANCH: 189681126 94.8406%
BRANCH_DIRECT_JUMP: 100574 0.050287%
BRANCH_INDIRECT: 18 9e-06%
BRANCH_CONDITIONAL: 9985254 4.99263%
BRANCH_DIRECT_CALL: 116340 0.05817%
BRANCH_INDIRECT_CALL: 0 0%
BRANCH_RETURN: 116340 0.05817%
BRANCH_OTHER: 0 0%

