
*** ChampSim Multicore Out-of-Order Simulator ***

Warmup Instructions: 50000000
Simulation Instructions: 200000000
Number of CPUs: 1
LLC sets: 2048
LLC ways: 16
Off-chip DRAM Size: 4096 MB Channels: 1 Width: 64-bit Data Rate: 3200 MT/s

CPU 0 runs /scratch/vsgirelli/ChampSim/trabalho_traces//401.bzip2-38B.champsimtrace.xz
CPU 0 L1D next line prefetcher
L2C Signature Path Prefetcher
Initialize DRRIP state
Assign rand_sets[0]: 454  LLC: 2048
rand_sets[0]: 454
Assign rand_sets[1]: 1662  LLC: 2048
rand_sets[1]: 1662
Assign rand_sets[2]: 1921  LLC: 2048
rand_sets[2]: 1921
Assign rand_sets[3]: 1131  LLC: 2048
rand_sets[3]: 1131
Assign rand_sets[4]: 331  LLC: 2048
rand_sets[4]: 331
Assign rand_sets[5]: 1531  LLC: 2048
rand_sets[5]: 1531
Assign rand_sets[6]: 482  LLC: 2048
rand_sets[6]: 482
Assign rand_sets[7]: 1275  LLC: 2048
rand_sets[7]: 1275
Assign rand_sets[8]: 1876  LLC: 2048
rand_sets[8]: 1876
Assign rand_sets[9]: 2038  LLC: 2048
rand_sets[9]: 2038
Assign rand_sets[10]: 701  LLC: 2048
rand_sets[10]: 701
Assign rand_sets[11]: 479  LLC: 2048
rand_sets[11]: 479
Assign rand_sets[12]: 892  LLC: 2048
rand_sets[12]: 892
Assign rand_sets[13]: 1820  LLC: 2048
rand_sets[13]: 1820
Assign rand_sets[14]: 1505  LLC: 2048
rand_sets[14]: 1505
Assign rand_sets[15]: 1159  LLC: 2048
rand_sets[15]: 1159
Assign rand_sets[16]: 513  LLC: 2048
rand_sets[16]: 513
Assign rand_sets[17]: 703  LLC: 2048
rand_sets[17]: 703
Assign rand_sets[18]: 561  LLC: 2048
rand_sets[18]: 561
Assign rand_sets[19]: 990  LLC: 2048
rand_sets[19]: 990
Assign rand_sets[20]: 342  LLC: 2048
rand_sets[20]: 342
Assign rand_sets[21]: 882  LLC: 2048
rand_sets[21]: 882
Assign rand_sets[22]: 15  LLC: 2048
rand_sets[22]: 15
Assign rand_sets[23]: 71  LLC: 2048
rand_sets[23]: 71
Assign rand_sets[24]: 1127  LLC: 2048
rand_sets[24]: 1127
Assign rand_sets[25]: 1382  LLC: 2048
rand_sets[25]: 1382
Assign rand_sets[26]: 647  LLC: 2048
rand_sets[26]: 647
Assign rand_sets[27]: 857  LLC: 2048
rand_sets[27]: 857
Assign rand_sets[28]: 1450  LLC: 2048
rand_sets[28]: 1450
Assign rand_sets[29]: 1160  LLC: 2048
rand_sets[29]: 1160
Assign rand_sets[30]: 1852  LLC: 2048
rand_sets[30]: 1852
Assign rand_sets[31]: 1881  LLC: 2048
rand_sets[31]: 1881
Assign rand_sets[32]: 1770  LLC: 2048
rand_sets[32]: 1770
Assign rand_sets[33]: 1622  LLC: 2048
rand_sets[33]: 1622
Assign rand_sets[34]: 275  LLC: 2048
rand_sets[34]: 275
Assign rand_sets[35]: 635  LLC: 2048
rand_sets[35]: 635
Assign rand_sets[36]: 466  LLC: 2048
rand_sets[36]: 466
Assign rand_sets[37]: 1413  LLC: 2048
rand_sets[37]: 1413
Assign rand_sets[38]: 417  LLC: 2048
rand_sets[38]: 417
Assign rand_sets[39]: 472  LLC: 2048
rand_sets[39]: 472
Assign rand_sets[40]: 1340  LLC: 2048
rand_sets[40]: 1340
Assign rand_sets[41]: 852  LLC: 2048
rand_sets[41]: 852
Assign rand_sets[42]: 1365  LLC: 2048
rand_sets[42]: 1365
Assign rand_sets[43]: 47  LLC: 2048
rand_sets[43]: 47
Assign rand_sets[44]: 823  LLC: 2048
rand_sets[44]: 823
Assign rand_sets[45]: 686  LLC: 2048
rand_sets[45]: 686
Assign rand_sets[46]: 1637  LLC: 2048
rand_sets[46]: 1637
Assign rand_sets[47]: 1115  LLC: 2048
rand_sets[47]: 1115
Assign rand_sets[48]: 986  LLC: 2048
rand_sets[48]: 986
Assign rand_sets[49]: 258  LLC: 2048
rand_sets[49]: 258
Assign rand_sets[50]: 633  LLC: 2048
rand_sets[50]: 633
Assign rand_sets[51]: 920  LLC: 2048
rand_sets[51]: 920
Assign rand_sets[52]: 204  LLC: 2048
rand_sets[52]: 204
Assign rand_sets[53]: 227  LLC: 2048
rand_sets[53]: 227
Assign rand_sets[54]: 1818  LLC: 2048
rand_sets[54]: 1818
Assign rand_sets[55]: 886  LLC: 2048
rand_sets[55]: 886
Assign rand_sets[56]: 1422  LLC: 2048
rand_sets[56]: 1422
Assign rand_sets[57]: 607  LLC: 2048
rand_sets[57]: 607
Assign rand_sets[58]: 217  LLC: 2048
rand_sets[58]: 217
Assign rand_sets[59]: 1945  LLC: 2048
rand_sets[59]: 1945
Assign rand_sets[60]: 143  LLC: 2048
rand_sets[60]: 143
Assign rand_sets[61]: 1311  LLC: 2048
rand_sets[61]: 1311
Assign rand_sets[62]: 319  LLC: 2048
rand_sets[62]: 319
Assign rand_sets[63]: 1846  LLC: 2048
rand_sets[63]: 1846
LLC Next Line Prefetcher
Heartbeat CPU 0 instructions: 10000001 cycles: 2923176 heartbeat IPC: 3.42094 cumulative IPC: 3.42094 (Simulation time: 0 hr 0 min 20 sec) 
Heartbeat CPU 0 instructions: 20000003 cycles: 6822259 heartbeat IPC: 2.56471 cumulative IPC: 2.93158 (Simulation time: 0 hr 0 min 50 sec) 
Heartbeat CPU 0 instructions: 30000001 cycles: 11660892 heartbeat IPC: 2.0667 cumulative IPC: 2.5727 (Simulation time: 0 hr 1 min 24 sec) 
Heartbeat CPU 0 instructions: 40000001 cycles: 15800680 heartbeat IPC: 2.41558 cumulative IPC: 2.53154 (Simulation time: 0 hr 1 min 57 sec) 
Heartbeat CPU 0 instructions: 50000003 cycles: 19401275 heartbeat IPC: 2.77732 cumulative IPC: 2.57715 (Simulation time: 0 hr 2 min 28 sec) 

Warmup complete CPU 0 instructions: 50000003 cycles: 19401275 (Simulation time: 0 hr 2 min 28 sec) 

Heartbeat CPU 0 instructions: 60000000 cycles: 25160996 heartbeat IPC: 1.73619 cumulative IPC: 1.73619 (Simulation time: 0 hr 2 min 53 sec) 
Heartbeat CPU 0 instructions: 70000000 cycles: 30942291 heartbeat IPC: 1.72972 cumulative IPC: 1.73295 (Simulation time: 0 hr 3 min 18 sec) 
Heartbeat CPU 0 instructions: 80000002 cycles: 37189216 heartbeat IPC: 1.60079 cumulative IPC: 1.68654 (Simulation time: 0 hr 3 min 39 sec) 
Heartbeat CPU 0 instructions: 90000000 cycles: 44960411 heartbeat IPC: 1.2868 cumulative IPC: 1.565 (Simulation time: 0 hr 4 min 2 sec) 
Heartbeat CPU 0 instructions: 100000003 cycles: 53842024 heartbeat IPC: 1.12592 cumulative IPC: 1.45177 (Simulation time: 0 hr 4 min 23 sec) 
Heartbeat CPU 0 instructions: 110000000 cycles: 63234713 heartbeat IPC: 1.06466 cumulative IPC: 1.36882 (Simulation time: 0 hr 4 min 45 sec) 
Heartbeat CPU 0 instructions: 120000001 cycles: 72644362 heartbeat IPC: 1.06274 cumulative IPC: 1.31472 (Simulation time: 0 hr 5 min 7 sec) 
Heartbeat CPU 0 instructions: 130000003 cycles: 82322294 heartbeat IPC: 1.03328 cumulative IPC: 1.27144 (Simulation time: 0 hr 5 min 29 sec) 
Heartbeat CPU 0 instructions: 140000000 cycles: 91984338 heartbeat IPC: 1.03498 cumulative IPC: 1.23996 (Simulation time: 0 hr 5 min 50 sec) 
Heartbeat CPU 0 instructions: 150000000 cycles: 101473624 heartbeat IPC: 1.05382 cumulative IPC: 1.21844 (Simulation time: 0 hr 6 min 12 sec) 
Heartbeat CPU 0 instructions: 160000001 cycles: 111054051 heartbeat IPC: 1.04379 cumulative IPC: 1.20018 (Simulation time: 0 hr 6 min 34 sec) 
Heartbeat CPU 0 instructions: 170000000 cycles: 121128620 heartbeat IPC: 0.992598 cumulative IPC: 1.17962 (Simulation time: 0 hr 6 min 56 sec) 
Heartbeat CPU 0 instructions: 180000001 cycles: 130731648 heartbeat IPC: 1.04134 cumulative IPC: 1.1677 (Simulation time: 0 hr 7 min 18 sec) 
Heartbeat CPU 0 instructions: 190000000 cycles: 139403664 heartbeat IPC: 1.15313 cumulative IPC: 1.16664 (Simulation time: 0 hr 7 min 38 sec) 
Heartbeat CPU 0 instructions: 200000001 cycles: 147603345 heartbeat IPC: 1.21956 cumulative IPC: 1.17003 (Simulation time: 0 hr 7 min 55 sec) 
Heartbeat CPU 0 instructions: 210000002 cycles: 155700742 heartbeat IPC: 1.23496 cumulative IPC: 1.17389 (Simulation time: 0 hr 8 min 14 sec) 
Heartbeat CPU 0 instructions: 220000000 cycles: 167660637 heartbeat IPC: 0.836128 cumulative IPC: 1.14664 (Simulation time: 0 hr 8 min 49 sec) 
Heartbeat CPU 0 instructions: 230000003 cycles: 179466621 heartbeat IPC: 0.847028 cumulative IPC: 1.12454 (Simulation time: 0 hr 9 min 24 sec) 
Heartbeat CPU 0 instructions: 240000002 cycles: 187377293 heartbeat IPC: 1.26411 cumulative IPC: 1.13111 (Simulation time: 0 hr 9 min 48 sec) 
Heartbeat CPU 0 instructions: 250000003 cycles: 193065568 heartbeat IPC: 1.758 cumulative IPC: 1.15165 (Simulation time: 0 hr 10 min 13 sec) 
Finished CPU 0 instructions: 200000000 cycles: 173664293 cumulative IPC: 1.15165 (Simulation time: 0 hr 10 min 13 sec) 

ChampSim completed all CPUs

Region of Interest Statistics

CPU 0 cumulative IPC: 1.15165 instructions: 200000000 cycles: 173664293
L1D TOTAL     ACCESS:   99820865  HIT:   96458068  MISS:    3362797
L1D LOAD      ACCESS:   38272368  HIT:   36828085  MISS:    1444283
L1D RFO       ACCESS:   24298049  HIT:   23761551  MISS:     536498
L1D PREFETCH  ACCESS:   37250448  HIT:   35868432  MISS:    1382016
L1D WRITEBACK ACCESS:          0  HIT:          0  MISS:          0
L1D PREFETCH  REQUESTED:   51764768  ISSUED:   51331808  USEFUL:     469743  USELESS:    1223361
L1D AVERAGE MISS LATENCY: 29.3674 cycles
L1I TOTAL     ACCESS:   34523727  HIT:   34523631  MISS:         96
L1I LOAD      ACCESS:   34523683  HIT:   34523624  MISS:         59
L1I RFO       ACCESS:          0  HIT:          0  MISS:          0
L1I PREFETCH  ACCESS:         44  HIT:          7  MISS:         37
L1I WRITEBACK ACCESS:          0  HIT:          0  MISS:          0
L1I PREFETCH  REQUESTED:        420  ISSUED:        420  USEFUL:        108  USELESS:          0
L1I AVERAGE MISS LATENCY: 125.177 cycles
L2C TOTAL     ACCESS:    4332420  HIT:    3338339  MISS:     994081
L2C LOAD      ACCESS:    1397729  HIT:    1146059  MISS:     251670
L2C RFO       ACCESS:     536353  HIT:     197788  MISS:     338565
L2C PREFETCH  ACCESS:    1676168  HIT:    1272801  MISS:     403367
L2C WRITEBACK ACCESS:     722170  HIT:     721691  MISS:        479
L2C PREFETCH  REQUESTED:    2390559  ISSUED:    2139359  USEFUL:     158264  USELESS:     318569
L2C AVERAGE MISS LATENCY: 55.8649 cycles
LLC TOTAL     ACCESS:    3386049  HIT:    3173970  MISS:     212079
LLC LOAD      ACCESS:     250333  HIT:     239242  MISS:      11091
LLC RFO       ACCESS:     338555  HIT:     238876  MISS:      99679
LLC PREFETCH  ACCESS:    2388675  HIT:    2291178  MISS:      97497
LLC WRITEBACK ACCESS:     408486  HIT:     404674  MISS:       3812
LLC PREFETCH  REQUESTED:    2056985  ISSUED:    2024460  USEFUL:      33574  USELESS:      82707
LLC AVERAGE MISS LATENCY: 188.965 cycles
Major fault: 0 Minor fault: 1206
CPU 0 L1D next line prefetcher final stats

L2C Signature Path Prefetcher final stats
LLC Next Line Prefetcher Final Stats: none

DRAM Statistics
 CHANNEL 0
 RQ ROW_BUFFER_HIT:      51145  ROW_BUFFER_MISS:     157014
 DBUS_CONGESTED:     106626
 WQ ROW_BUFFER_HIT:      34757  ROW_BUFFER_MISS:     108379  FULL:          0

 AVG_CONGESTED_CYCLE: 6

CPU 0 Branch Prediction Accuracy: 93.1077% MPKI: 9.94713 Average ROB Occupancy at Mispredict: 23.4793

Branch types
NOT_BRANCH: 171135633 85.5678%
BRANCH_DIRECT_JUMP: 2579338 1.28967%
BRANCH_INDIRECT: 0 0%
BRANCH_CONDITIONAL: 24284231 12.1421%
BRANCH_DIRECT_CALL: 1000418 0.500209%
BRANCH_INDIRECT_CALL: 0 0%
BRANCH_RETURN: 1000419 0.500209%
BRANCH_OTHER: 0 0%

