
*** ChampSim Multicore Out-of-Order Simulator ***

Warmup Instructions: 50000000
Simulation Instructions: 200000000
Number of CPUs: 1
LLC sets: 2048
LLC ways: 16
Off-chip DRAM Size: 4096 MB Channels: 1 Width: 64-bit Data Rate: 3200 MT/s

CPU 0 runs /scratch/vsgirelli/ChampSim/trabalho_traces//403.gcc-48B.champsimtrace.xz
CPU 0 L1D next line prefetcher
L2C Signature Path Prefetcher
Initialize DRRIP state
Assign rand_sets[0]: 454  LLC: 2048
rand_sets[0]: 454
Assign rand_sets[1]: 1662  LLC: 2048
rand_sets[1]: 1662
Assign rand_sets[2]: 1921  LLC: 2048
rand_sets[2]: 1921
Assign rand_sets[3]: 1131  LLC: 2048
rand_sets[3]: 1131
Assign rand_sets[4]: 331  LLC: 2048
rand_sets[4]: 331
Assign rand_sets[5]: 1531  LLC: 2048
rand_sets[5]: 1531
Assign rand_sets[6]: 482  LLC: 2048
rand_sets[6]: 482
Assign rand_sets[7]: 1275  LLC: 2048
rand_sets[7]: 1275
Assign rand_sets[8]: 1876  LLC: 2048
rand_sets[8]: 1876
Assign rand_sets[9]: 2038  LLC: 2048
rand_sets[9]: 2038
Assign rand_sets[10]: 701  LLC: 2048
rand_sets[10]: 701
Assign rand_sets[11]: 479  LLC: 2048
rand_sets[11]: 479
Assign rand_sets[12]: 892  LLC: 2048
rand_sets[12]: 892
Assign rand_sets[13]: 1820  LLC: 2048
rand_sets[13]: 1820
Assign rand_sets[14]: 1505  LLC: 2048
rand_sets[14]: 1505
Assign rand_sets[15]: 1159  LLC: 2048
rand_sets[15]: 1159
Assign rand_sets[16]: 513  LLC: 2048
rand_sets[16]: 513
Assign rand_sets[17]: 703  LLC: 2048
rand_sets[17]: 703
Assign rand_sets[18]: 561  LLC: 2048
rand_sets[18]: 561
Assign rand_sets[19]: 990  LLC: 2048
rand_sets[19]: 990
Assign rand_sets[20]: 342  LLC: 2048
rand_sets[20]: 342
Assign rand_sets[21]: 882  LLC: 2048
rand_sets[21]: 882
Assign rand_sets[22]: 15  LLC: 2048
rand_sets[22]: 15
Assign rand_sets[23]: 71  LLC: 2048
rand_sets[23]: 71
Assign rand_sets[24]: 1127  LLC: 2048
rand_sets[24]: 1127
Assign rand_sets[25]: 1382  LLC: 2048
rand_sets[25]: 1382
Assign rand_sets[26]: 647  LLC: 2048
rand_sets[26]: 647
Assign rand_sets[27]: 857  LLC: 2048
rand_sets[27]: 857
Assign rand_sets[28]: 1450  LLC: 2048
rand_sets[28]: 1450
Assign rand_sets[29]: 1160  LLC: 2048
rand_sets[29]: 1160
Assign rand_sets[30]: 1852  LLC: 2048
rand_sets[30]: 1852
Assign rand_sets[31]: 1881  LLC: 2048
rand_sets[31]: 1881
Assign rand_sets[32]: 1770  LLC: 2048
rand_sets[32]: 1770
Assign rand_sets[33]: 1622  LLC: 2048
rand_sets[33]: 1622
Assign rand_sets[34]: 275  LLC: 2048
rand_sets[34]: 275
Assign rand_sets[35]: 635  LLC: 2048
rand_sets[35]: 635
Assign rand_sets[36]: 466  LLC: 2048
rand_sets[36]: 466
Assign rand_sets[37]: 1413  LLC: 2048
rand_sets[37]: 1413
Assign rand_sets[38]: 417  LLC: 2048
rand_sets[38]: 417
Assign rand_sets[39]: 472  LLC: 2048
rand_sets[39]: 472
Assign rand_sets[40]: 1340  LLC: 2048
rand_sets[40]: 1340
Assign rand_sets[41]: 852  LLC: 2048
rand_sets[41]: 852
Assign rand_sets[42]: 1365  LLC: 2048
rand_sets[42]: 1365
Assign rand_sets[43]: 47  LLC: 2048
rand_sets[43]: 47
Assign rand_sets[44]: 823  LLC: 2048
rand_sets[44]: 823
Assign rand_sets[45]: 686  LLC: 2048
rand_sets[45]: 686
Assign rand_sets[46]: 1637  LLC: 2048
rand_sets[46]: 1637
Assign rand_sets[47]: 1115  LLC: 2048
rand_sets[47]: 1115
Assign rand_sets[48]: 986  LLC: 2048
rand_sets[48]: 986
Assign rand_sets[49]: 258  LLC: 2048
rand_sets[49]: 258
Assign rand_sets[50]: 633  LLC: 2048
rand_sets[50]: 633
Assign rand_sets[51]: 920  LLC: 2048
rand_sets[51]: 920
Assign rand_sets[52]: 204  LLC: 2048
rand_sets[52]: 204
Assign rand_sets[53]: 227  LLC: 2048
rand_sets[53]: 227
Assign rand_sets[54]: 1818  LLC: 2048
rand_sets[54]: 1818
Assign rand_sets[55]: 886  LLC: 2048
rand_sets[55]: 886
Assign rand_sets[56]: 1422  LLC: 2048
rand_sets[56]: 1422
Assign rand_sets[57]: 607  LLC: 2048
rand_sets[57]: 607
Assign rand_sets[58]: 217  LLC: 2048
rand_sets[58]: 217
Assign rand_sets[59]: 1945  LLC: 2048
rand_sets[59]: 1945
Assign rand_sets[60]: 143  LLC: 2048
rand_sets[60]: 143
Assign rand_sets[61]: 1311  LLC: 2048
rand_sets[61]: 1311
Assign rand_sets[62]: 319  LLC: 2048
rand_sets[62]: 319
Assign rand_sets[63]: 1846  LLC: 2048
rand_sets[63]: 1846
LLC Next Line Prefetcher
Heartbeat CPU 0 instructions: 10000002 cycles: 4167859 heartbeat IPC: 2.39931 cumulative IPC: 2.39931 (Simulation time: 0 hr 0 min 31 sec) 
Heartbeat CPU 0 instructions: 20000000 cycles: 8337832 heartbeat IPC: 2.3981 cumulative IPC: 2.39871 (Simulation time: 0 hr 1 min 3 sec) 
Heartbeat CPU 0 instructions: 30000001 cycles: 12505705 heartbeat IPC: 2.39931 cumulative IPC: 2.39891 (Simulation time: 0 hr 1 min 34 sec) 
Heartbeat CPU 0 instructions: 40000002 cycles: 16673597 heartbeat IPC: 2.39929 cumulative IPC: 2.399 (Simulation time: 0 hr 2 min 5 sec) 
Heartbeat CPU 0 instructions: 50000002 cycles: 20846374 heartbeat IPC: 2.39649 cumulative IPC: 2.3985 (Simulation time: 0 hr 2 min 36 sec) 

Warmup complete CPU 0 instructions: 50000002 cycles: 20846374 (Simulation time: 0 hr 2 min 36 sec) 

Heartbeat CPU 0 instructions: 60000001 cycles: 27959011 heartbeat IPC: 1.40595 cumulative IPC: 1.40595 (Simulation time: 0 hr 3 min 11 sec) 
Heartbeat CPU 0 instructions: 70000002 cycles: 35092463 heartbeat IPC: 1.40185 cumulative IPC: 1.40389 (Simulation time: 0 hr 3 min 46 sec) 
Heartbeat CPU 0 instructions: 80000001 cycles: 42206018 heartbeat IPC: 1.40577 cumulative IPC: 1.40452 (Simulation time: 0 hr 4 min 21 sec) 
Heartbeat CPU 0 instructions: 90000002 cycles: 49354058 heartbeat IPC: 1.39899 cumulative IPC: 1.40313 (Simulation time: 0 hr 4 min 56 sec) 
Heartbeat CPU 0 instructions: 100000001 cycles: 56480537 heartbeat IPC: 1.40322 cumulative IPC: 1.40315 (Simulation time: 0 hr 5 min 32 sec) 
Heartbeat CPU 0 instructions: 110000000 cycles: 63576565 heartbeat IPC: 1.40924 cumulative IPC: 1.40416 (Simulation time: 0 hr 6 min 7 sec) 
Heartbeat CPU 0 instructions: 120000000 cycles: 70738783 heartbeat IPC: 1.39622 cumulative IPC: 1.40302 (Simulation time: 0 hr 6 min 42 sec) 
Heartbeat CPU 0 instructions: 130000003 cycles: 77886375 heartbeat IPC: 1.39907 cumulative IPC: 1.40252 (Simulation time: 0 hr 7 min 17 sec) 
Heartbeat CPU 0 instructions: 140000002 cycles: 85044920 heartbeat IPC: 1.39693 cumulative IPC: 1.4019 (Simulation time: 0 hr 7 min 52 sec) 
Heartbeat CPU 0 instructions: 150000000 cycles: 92178937 heartbeat IPC: 1.40173 cumulative IPC: 1.40188 (Simulation time: 0 hr 8 min 28 sec) 
Heartbeat CPU 0 instructions: 160000001 cycles: 99312928 heartbeat IPC: 1.40174 cumulative IPC: 1.40187 (Simulation time: 0 hr 9 min 3 sec) 
Heartbeat CPU 0 instructions: 170000002 cycles: 106445433 heartbeat IPC: 1.40203 cumulative IPC: 1.40188 (Simulation time: 0 hr 9 min 38 sec) 
Heartbeat CPU 0 instructions: 180000000 cycles: 113581147 heartbeat IPC: 1.4014 cumulative IPC: 1.40185 (Simulation time: 0 hr 10 min 13 sec) 
Heartbeat CPU 0 instructions: 190000001 cycles: 120690067 heartbeat IPC: 1.40668 cumulative IPC: 1.40219 (Simulation time: 0 hr 10 min 49 sec) 
Heartbeat CPU 0 instructions: 200000002 cycles: 127826850 heartbeat IPC: 1.40119 cumulative IPC: 1.40213 (Simulation time: 0 hr 11 min 24 sec) 
Heartbeat CPU 0 instructions: 210000002 cycles: 134989181 heartbeat IPC: 1.39619 cumulative IPC: 1.40175 (Simulation time: 0 hr 11 min 59 sec) 
Heartbeat CPU 0 instructions: 220000000 cycles: 142137562 heartbeat IPC: 1.39892 cumulative IPC: 1.40159 (Simulation time: 0 hr 12 min 34 sec) 
Heartbeat CPU 0 instructions: 230000003 cycles: 149292944 heartbeat IPC: 1.39755 cumulative IPC: 1.40136 (Simulation time: 0 hr 13 min 10 sec) 
Heartbeat CPU 0 instructions: 240000000 cycles: 156414393 heartbeat IPC: 1.40421 cumulative IPC: 1.40151 (Simulation time: 0 hr 13 min 45 sec) 
Heartbeat CPU 0 instructions: 250000003 cycles: 163548778 heartbeat IPC: 1.40166 cumulative IPC: 1.40152 (Simulation time: 0 hr 14 min 20 sec) 
Finished CPU 0 instructions: 200000001 cycles: 142702404 cumulative IPC: 1.40152 (Simulation time: 0 hr 14 min 20 sec) 

ChampSim completed all CPUs

Region of Interest Statistics

CPU 0 cumulative IPC: 1.40152 instructions: 200000001 cycles: 142702404
L1D TOTAL     ACCESS:  100405097  HIT:   98526694  MISS:    1878403
L1D LOAD      ACCESS:   32657914  HIT:   31708785  MISS:     949129
L1D RFO       ACCESS:   35399982  HIT:   35392346  MISS:       7636
L1D PREFETCH  ACCESS:   32347201  HIT:   31425563  MISS:     921638
L1D WRITEBACK ACCESS:          0  HIT:          0  MISS:          0
L1D PREFETCH  REQUESTED:   44457949  ISSUED:   44338437  USEFUL:     461556  USELESS:     703927
L1D AVERAGE MISS LATENCY: 19.6287 cycles
L1I TOTAL     ACCESS:   52125403  HIT:   52125402  MISS:          1
L1I LOAD      ACCESS:   52125402  HIT:   52125401  MISS:          1
L1I RFO       ACCESS:          0  HIT:          0  MISS:          0
L1I PREFETCH  ACCESS:          1  HIT:          1  MISS:          0
L1I WRITEBACK ACCESS:          0  HIT:          0  MISS:          0
L1I PREFETCH  REQUESTED:        139  ISSUED:        139  USEFUL:         27  USELESS:          0
L1I AVERAGE MISS LATENCY: 44 cycles
L2C TOTAL     ACCESS:    1915414  HIT:    1843847  MISS:      71567
L2C LOAD      ACCESS:     890491  HIT:     856028  MISS:      34463
L2C RFO       ACCESS:       7633  HIT:       1464  MISS:       6169
L2C PREFETCH  ACCESS:     983884  HIT:     952958  MISS:      30926
L2C WRITEBACK ACCESS:      33406  HIT:      33397  MISS:          9
L2C PREFETCH  REQUESTED:     249383  ISSUED:     249383  USEFUL:       4635  USELESS:      30933
L2C AVERAGE MISS LATENCY: 135.822 cycles
LLC TOTAL     ACCESS:     483609  HIT:     396470  MISS:      87139
LLC LOAD      ACCESS:      34459  HIT:      12058  MISS:      22401
LLC RFO       ACCESS:       6169  HIT:         91  MISS:       6078
LLC PREFETCH  ACCESS:     427723  HIT:     370234  MISS:      57489
LLC WRITEBACK ACCESS:      15258  HIT:      14087  MISS:       1171
LLC PREFETCH  REQUESTED:     307201  ISSUED:     304842  USEFUL:      14297  USELESS:      41468
LLC AVERAGE MISS LATENCY: 164.114 cycles
Major fault: 0 Minor fault: 3166
CPU 0 L1D next line prefetcher final stats

L2C Signature Path Prefetcher final stats
LLC Next Line Prefetcher Final Stats: none

DRAM Statistics
 CHANNEL 0
 RQ ROW_BUFFER_HIT:      18842  ROW_BUFFER_MISS:      67126
 DBUS_CONGESTED:      24821
 WQ ROW_BUFFER_HIT:       2367  ROW_BUFFER_MISS:      11223  FULL:          0

 AVG_CONGESTED_CYCLE: 4

CPU 0 Branch Prediction Accuracy: 99.8948% MPKI: 0.23418 Average ROB Occupancy at Mispredict: 162.524

Branch types
NOT_BRANCH: 155459753 77.7299%
BRANCH_DIRECT_JUMP: 6043339 3.02167%
BRANCH_INDIRECT: 2962107 1.48105%
BRANCH_CONDITIONAL: 29440141 14.7201%
BRANCH_DIRECT_CALL: 3030357 1.51518%
BRANCH_INDIRECT_CALL: 16973 0.0084865%
BRANCH_RETURN: 3047330 1.52366%
BRANCH_OTHER: 0 0%

