
*** ChampSim Multicore Out-of-Order Simulator ***

Warmup Instructions: 50000000
Simulation Instructions: 200000000
Number of CPUs: 1
LLC sets: 2048
LLC ways: 16
Off-chip DRAM Size: 4096 MB Channels: 1 Width: 64-bit Data Rate: 3200 MT/s

CPU 0 runs /scratch/vsgirelli/ChampSim/trabalho_traces//454.calculix-460B.champsimtrace.xz
CPU 0 L1D next line prefetcher
L2C Signature Path Prefetcher
Initialize DRRIP state
Assign rand_sets[0]: 454  LLC: 2048
rand_sets[0]: 454
Assign rand_sets[1]: 1662  LLC: 2048
rand_sets[1]: 1662
Assign rand_sets[2]: 1921  LLC: 2048
rand_sets[2]: 1921
Assign rand_sets[3]: 1131  LLC: 2048
rand_sets[3]: 1131
Assign rand_sets[4]: 331  LLC: 2048
rand_sets[4]: 331
Assign rand_sets[5]: 1531  LLC: 2048
rand_sets[5]: 1531
Assign rand_sets[6]: 482  LLC: 2048
rand_sets[6]: 482
Assign rand_sets[7]: 1275  LLC: 2048
rand_sets[7]: 1275
Assign rand_sets[8]: 1876  LLC: 2048
rand_sets[8]: 1876
Assign rand_sets[9]: 2038  LLC: 2048
rand_sets[9]: 2038
Assign rand_sets[10]: 701  LLC: 2048
rand_sets[10]: 701
Assign rand_sets[11]: 479  LLC: 2048
rand_sets[11]: 479
Assign rand_sets[12]: 892  LLC: 2048
rand_sets[12]: 892
Assign rand_sets[13]: 1820  LLC: 2048
rand_sets[13]: 1820
Assign rand_sets[14]: 1505  LLC: 2048
rand_sets[14]: 1505
Assign rand_sets[15]: 1159  LLC: 2048
rand_sets[15]: 1159
Assign rand_sets[16]: 513  LLC: 2048
rand_sets[16]: 513
Assign rand_sets[17]: 703  LLC: 2048
rand_sets[17]: 703
Assign rand_sets[18]: 561  LLC: 2048
rand_sets[18]: 561
Assign rand_sets[19]: 990  LLC: 2048
rand_sets[19]: 990
Assign rand_sets[20]: 342  LLC: 2048
rand_sets[20]: 342
Assign rand_sets[21]: 882  LLC: 2048
rand_sets[21]: 882
Assign rand_sets[22]: 15  LLC: 2048
rand_sets[22]: 15
Assign rand_sets[23]: 71  LLC: 2048
rand_sets[23]: 71
Assign rand_sets[24]: 1127  LLC: 2048
rand_sets[24]: 1127
Assign rand_sets[25]: 1382  LLC: 2048
rand_sets[25]: 1382
Assign rand_sets[26]: 647  LLC: 2048
rand_sets[26]: 647
Assign rand_sets[27]: 857  LLC: 2048
rand_sets[27]: 857
Assign rand_sets[28]: 1450  LLC: 2048
rand_sets[28]: 1450
Assign rand_sets[29]: 1160  LLC: 2048
rand_sets[29]: 1160
Assign rand_sets[30]: 1852  LLC: 2048
rand_sets[30]: 1852
Assign rand_sets[31]: 1881  LLC: 2048
rand_sets[31]: 1881
Assign rand_sets[32]: 1770  LLC: 2048
rand_sets[32]: 1770
Assign rand_sets[33]: 1622  LLC: 2048
rand_sets[33]: 1622
Assign rand_sets[34]: 275  LLC: 2048
rand_sets[34]: 275
Assign rand_sets[35]: 635  LLC: 2048
rand_sets[35]: 635
Assign rand_sets[36]: 466  LLC: 2048
rand_sets[36]: 466
Assign rand_sets[37]: 1413  LLC: 2048
rand_sets[37]: 1413
Assign rand_sets[38]: 417  LLC: 2048
rand_sets[38]: 417
Assign rand_sets[39]: 472  LLC: 2048
rand_sets[39]: 472
Assign rand_sets[40]: 1340  LLC: 2048
rand_sets[40]: 1340
Assign rand_sets[41]: 852  LLC: 2048
rand_sets[41]: 852
Assign rand_sets[42]: 1365  LLC: 2048
rand_sets[42]: 1365
Assign rand_sets[43]: 47  LLC: 2048
rand_sets[43]: 47
Assign rand_sets[44]: 823  LLC: 2048
rand_sets[44]: 823
Assign rand_sets[45]: 686  LLC: 2048
rand_sets[45]: 686
Assign rand_sets[46]: 1637  LLC: 2048
rand_sets[46]: 1637
Assign rand_sets[47]: 1115  LLC: 2048
rand_sets[47]: 1115
Assign rand_sets[48]: 986  LLC: 2048
rand_sets[48]: 986
Assign rand_sets[49]: 258  LLC: 2048
rand_sets[49]: 258
Assign rand_sets[50]: 633  LLC: 2048
rand_sets[50]: 633
Assign rand_sets[51]: 920  LLC: 2048
rand_sets[51]: 920
Assign rand_sets[52]: 204  LLC: 2048
rand_sets[52]: 204
Assign rand_sets[53]: 227  LLC: 2048
rand_sets[53]: 227
Assign rand_sets[54]: 1818  LLC: 2048
rand_sets[54]: 1818
Assign rand_sets[55]: 886  LLC: 2048
rand_sets[55]: 886
Assign rand_sets[56]: 1422  LLC: 2048
rand_sets[56]: 1422
Assign rand_sets[57]: 607  LLC: 2048
rand_sets[57]: 607
Assign rand_sets[58]: 217  LLC: 2048
rand_sets[58]: 217
Assign rand_sets[59]: 1945  LLC: 2048
rand_sets[59]: 1945
Assign rand_sets[60]: 143  LLC: 2048
rand_sets[60]: 143
Assign rand_sets[61]: 1311  LLC: 2048
rand_sets[61]: 1311
Assign rand_sets[62]: 319  LLC: 2048
rand_sets[62]: 319
Assign rand_sets[63]: 1846  LLC: 2048
rand_sets[63]: 1846
LLC Next Line Prefetcher
Heartbeat CPU 0 instructions: 10000003 cycles: 3064846 heartbeat IPC: 3.26281 cumulative IPC: 3.26281 (Simulation time: 0 hr 0 min 23 sec) 
Heartbeat CPU 0 instructions: 20000002 cycles: 6074000 heartbeat IPC: 3.32319 cumulative IPC: 3.29272 (Simulation time: 0 hr 0 min 47 sec) 
Heartbeat CPU 0 instructions: 30000002 cycles: 9120708 heartbeat IPC: 3.28223 cumulative IPC: 3.28922 (Simulation time: 0 hr 1 min 10 sec) 
Heartbeat CPU 0 instructions: 40000002 cycles: 12137896 heartbeat IPC: 3.31434 cumulative IPC: 3.29546 (Simulation time: 0 hr 1 min 34 sec) 
Heartbeat CPU 0 instructions: 50000003 cycles: 15169096 heartbeat IPC: 3.29902 cumulative IPC: 3.29618 (Simulation time: 0 hr 1 min 58 sec) 

Warmup complete CPU 0 instructions: 50000003 cycles: 15169096 (Simulation time: 0 hr 1 min 58 sec) 

Heartbeat CPU 0 instructions: 60000000 cycles: 20413435 heartbeat IPC: 1.90682 cumulative IPC: 1.90682 (Simulation time: 0 hr 2 min 12 sec) 
Heartbeat CPU 0 instructions: 70000001 cycles: 27726963 heartbeat IPC: 1.36733 cumulative IPC: 1.59263 (Simulation time: 0 hr 2 min 31 sec) 
Heartbeat CPU 0 instructions: 80000002 cycles: 35644799 heartbeat IPC: 1.26297 cumulative IPC: 1.46515 (Simulation time: 0 hr 2 min 48 sec) 
Heartbeat CPU 0 instructions: 90000000 cycles: 41868715 heartbeat IPC: 1.60671 cumulative IPC: 1.49815 (Simulation time: 0 hr 3 min 4 sec) 
Heartbeat CPU 0 instructions: 100000000 cycles: 46973625 heartbeat IPC: 1.9589 cumulative IPC: 1.5721 (Simulation time: 0 hr 3 min 19 sec) 
Heartbeat CPU 0 instructions: 110000000 cycles: 52148050 heartbeat IPC: 1.93258 cumulative IPC: 1.62254 (Simulation time: 0 hr 3 min 34 sec) 
Heartbeat CPU 0 instructions: 120000002 cycles: 57370081 heartbeat IPC: 1.91496 cumulative IPC: 1.65873 (Simulation time: 0 hr 3 min 49 sec) 
Heartbeat CPU 0 instructions: 130000003 cycles: 62620613 heartbeat IPC: 1.90457 cumulative IPC: 1.68593 (Simulation time: 0 hr 4 min 5 sec) 
Heartbeat CPU 0 instructions: 140000003 cycles: 67827062 heartbeat IPC: 1.92069 cumulative IPC: 1.70914 (Simulation time: 0 hr 4 min 20 sec) 
Heartbeat CPU 0 instructions: 150000001 cycles: 72951954 heartbeat IPC: 1.95126 cumulative IPC: 1.73062 (Simulation time: 0 hr 4 min 35 sec) 
Heartbeat CPU 0 instructions: 160000002 cycles: 78155962 heartbeat IPC: 1.9216 cumulative IPC: 1.7464 (Simulation time: 0 hr 4 min 50 sec) 
Heartbeat CPU 0 instructions: 170000001 cycles: 83368311 heartbeat IPC: 1.91852 cumulative IPC: 1.75955 (Simulation time: 0 hr 5 min 5 sec) 
Heartbeat CPU 0 instructions: 180000001 cycles: 88565142 heartbeat IPC: 1.92425 cumulative IPC: 1.77121 (Simulation time: 0 hr 5 min 20 sec) 
Heartbeat CPU 0 instructions: 190000000 cycles: 93743794 heartbeat IPC: 1.931 cumulative IPC: 1.78174 (Simulation time: 0 hr 5 min 34 sec) 
Heartbeat CPU 0 instructions: 200000003 cycles: 98960676 heartbeat IPC: 1.91685 cumulative IPC: 1.79016 (Simulation time: 0 hr 5 min 50 sec) 
Heartbeat CPU 0 instructions: 210000002 cycles: 104211300 heartbeat IPC: 1.90454 cumulative IPC: 1.7969 (Simulation time: 0 hr 6 min 6 sec) 
Heartbeat CPU 0 instructions: 220000000 cycles: 109494916 heartbeat IPC: 1.89264 cumulative IPC: 1.80226 (Simulation time: 0 hr 6 min 22 sec) 
Heartbeat CPU 0 instructions: 230000003 cycles: 114622255 heartbeat IPC: 1.95033 cumulative IPC: 1.8099 (Simulation time: 0 hr 6 min 37 sec) 
Heartbeat CPU 0 instructions: 240000003 cycles: 119841805 heartbeat IPC: 1.91587 cumulative IPC: 1.81518 (Simulation time: 0 hr 6 min 52 sec) 
Heartbeat CPU 0 instructions: 250000000 cycles: 125012314 heartbeat IPC: 1.93404 cumulative IPC: 1.82078 (Simulation time: 0 hr 7 min 7 sec) 
Finished CPU 0 instructions: 200000001 cycles: 109843219 cumulative IPC: 1.82078 (Simulation time: 0 hr 7 min 7 sec) 

ChampSim completed all CPUs

Region of Interest Statistics

CPU 0 cumulative IPC: 1.82078 instructions: 200000001 cycles: 109843219
L1D TOTAL     ACCESS:   75070640  HIT:   72515378  MISS:    2555262
L1D LOAD      ACCESS:   35838847  HIT:   35478007  MISS:     360840
L1D RFO       ACCESS:    5177008  HIT:    5142926  MISS:      34082
L1D PREFETCH  ACCESS:   34054785  HIT:   31894445  MISS:    2160340
L1D WRITEBACK ACCESS:          0  HIT:          0  MISS:          0
L1D PREFETCH  REQUESTED:   46012547  ISSUED:   45495781  USEFUL:    2617396  USELESS:      55586
L1D AVERAGE MISS LATENCY: 23.4307 cycles
L1I TOTAL     ACCESS:   34072481  HIT:   34071894  MISS:        587
L1I LOAD      ACCESS:   34072199  HIT:   34071846  MISS:        353
L1I RFO       ACCESS:          0  HIT:          0  MISS:          0
L1I PREFETCH  ACCESS:        282  HIT:         48  MISS:        234
L1I WRITEBACK ACCESS:          0  HIT:          0  MISS:          0
L1I PREFETCH  REQUESTED:        727  ISSUED:        727  USEFUL:        149  USELESS:         38
L1I AVERAGE MISS LATENCY: 111.17 cycles
L2C TOTAL     ACCESS:    3470319  HIT:    2559078  MISS:     911241
L2C LOAD      ACCESS:     300457  HIT:     214084  MISS:      86373
L2C RFO       ACCESS:      34068  HIT:       3692  MISS:      30376
L2C PREFETCH  ACCESS:    2624919  HIT:    1833107  MISS:     791812
L2C WRITEBACK ACCESS:     510875  HIT:     508195  MISS:       2680
L2C PREFETCH  REQUESTED:    3516325  ISSUED:    3250913  USEFUL:      26245  USELESS:     845070
L2C AVERAGE MISS LATENCY: 40.906 cycles
LLC TOTAL     ACCESS:    3747635  HIT:    3518616  MISS:     229019
LLC LOAD      ACCESS:      83007  HIT:      66801  MISS:      16206
LLC RFO       ACCESS:      30375  HIT:      19067  MISS:      11308
LLC PREFETCH  ACCESS:    3368404  HIT:    3168040  MISS:     200364
LLC WRITEBACK ACCESS:     265849  HIT:     264708  MISS:       1141
LLC PREFETCH  REQUESTED:    2880036  ISSUED:    2825131  USEFUL:      24739  USELESS:     214196
LLC AVERAGE MISS LATENCY: 142.587 cycles
Major fault: 0 Minor fault: 3394
CPU 0 L1D next line prefetcher final stats

L2C Signature Path Prefetcher final stats
LLC Next Line Prefetcher Final Stats: none

DRAM Statistics
 CHANNEL 0
 RQ ROW_BUFFER_HIT:     131064  ROW_BUFFER_MISS:      96792
 DBUS_CONGESTED:      95861
 WQ ROW_BUFFER_HIT:      18981  ROW_BUFFER_MISS:      38137  FULL:          0

 AVG_CONGESTED_CYCLE: 6

CPU 0 Branch Prediction Accuracy: 99.8856% MPKI: 0.059035 Average ROB Occupancy at Mispredict: 30.9636

Branch types
NOT_BRANCH: 189681126 94.8406%
BRANCH_DIRECT_JUMP: 100574 0.050287%
BRANCH_INDIRECT: 18 9e-06%
BRANCH_CONDITIONAL: 9985254 4.99263%
BRANCH_DIRECT_CALL: 116340 0.05817%
BRANCH_INDIRECT_CALL: 0 0%
BRANCH_RETURN: 116340 0.05817%
BRANCH_OTHER: 0 0%

