
*** ChampSim Multicore Out-of-Order Simulator ***

Warmup Instructions: 50000000
Simulation Instructions: 200000000
Number of CPUs: 1
LLC sets: 2048
LLC ways: 16
Off-chip DRAM Size: 4096 MB Channels: 1 Width: 64-bit Data Rate: 3200 MT/s

CPU 0 runs /scratch/vsgirelli/ChampSim/trabalho_traces//473.astar-42B.champsimtrace.xz
CPU 0 L1D next line prefetcher
L2C Signature Path Prefetcher
Initialize DRRIP state
Assign rand_sets[0]: 454  LLC: 2048
rand_sets[0]: 454
Assign rand_sets[1]: 1662  LLC: 2048
rand_sets[1]: 1662
Assign rand_sets[2]: 1921  LLC: 2048
rand_sets[2]: 1921
Assign rand_sets[3]: 1131  LLC: 2048
rand_sets[3]: 1131
Assign rand_sets[4]: 331  LLC: 2048
rand_sets[4]: 331
Assign rand_sets[5]: 1531  LLC: 2048
rand_sets[5]: 1531
Assign rand_sets[6]: 482  LLC: 2048
rand_sets[6]: 482
Assign rand_sets[7]: 1275  LLC: 2048
rand_sets[7]: 1275
Assign rand_sets[8]: 1876  LLC: 2048
rand_sets[8]: 1876
Assign rand_sets[9]: 2038  LLC: 2048
rand_sets[9]: 2038
Assign rand_sets[10]: 701  LLC: 2048
rand_sets[10]: 701
Assign rand_sets[11]: 479  LLC: 2048
rand_sets[11]: 479
Assign rand_sets[12]: 892  LLC: 2048
rand_sets[12]: 892
Assign rand_sets[13]: 1820  LLC: 2048
rand_sets[13]: 1820
Assign rand_sets[14]: 1505  LLC: 2048
rand_sets[14]: 1505
Assign rand_sets[15]: 1159  LLC: 2048
rand_sets[15]: 1159
Assign rand_sets[16]: 513  LLC: 2048
rand_sets[16]: 513
Assign rand_sets[17]: 703  LLC: 2048
rand_sets[17]: 703
Assign rand_sets[18]: 561  LLC: 2048
rand_sets[18]: 561
Assign rand_sets[19]: 990  LLC: 2048
rand_sets[19]: 990
Assign rand_sets[20]: 342  LLC: 2048
rand_sets[20]: 342
Assign rand_sets[21]: 882  LLC: 2048
rand_sets[21]: 882
Assign rand_sets[22]: 15  LLC: 2048
rand_sets[22]: 15
Assign rand_sets[23]: 71  LLC: 2048
rand_sets[23]: 71
Assign rand_sets[24]: 1127  LLC: 2048
rand_sets[24]: 1127
Assign rand_sets[25]: 1382  LLC: 2048
rand_sets[25]: 1382
Assign rand_sets[26]: 647  LLC: 2048
rand_sets[26]: 647
Assign rand_sets[27]: 857  LLC: 2048
rand_sets[27]: 857
Assign rand_sets[28]: 1450  LLC: 2048
rand_sets[28]: 1450
Assign rand_sets[29]: 1160  LLC: 2048
rand_sets[29]: 1160
Assign rand_sets[30]: 1852  LLC: 2048
rand_sets[30]: 1852
Assign rand_sets[31]: 1881  LLC: 2048
rand_sets[31]: 1881
Assign rand_sets[32]: 1770  LLC: 2048
rand_sets[32]: 1770
Assign rand_sets[33]: 1622  LLC: 2048
rand_sets[33]: 1622
Assign rand_sets[34]: 275  LLC: 2048
rand_sets[34]: 275
Assign rand_sets[35]: 635  LLC: 2048
rand_sets[35]: 635
Assign rand_sets[36]: 466  LLC: 2048
rand_sets[36]: 466
Assign rand_sets[37]: 1413  LLC: 2048
rand_sets[37]: 1413
Assign rand_sets[38]: 417  LLC: 2048
rand_sets[38]: 417
Assign rand_sets[39]: 472  LLC: 2048
rand_sets[39]: 472
Assign rand_sets[40]: 1340  LLC: 2048
rand_sets[40]: 1340
Assign rand_sets[41]: 852  LLC: 2048
rand_sets[41]: 852
Assign rand_sets[42]: 1365  LLC: 2048
rand_sets[42]: 1365
Assign rand_sets[43]: 47  LLC: 2048
rand_sets[43]: 47
Assign rand_sets[44]: 823  LLC: 2048
rand_sets[44]: 823
Assign rand_sets[45]: 686  LLC: 2048
rand_sets[45]: 686
Assign rand_sets[46]: 1637  LLC: 2048
rand_sets[46]: 1637
Assign rand_sets[47]: 1115  LLC: 2048
rand_sets[47]: 1115
Assign rand_sets[48]: 986  LLC: 2048
rand_sets[48]: 986
Assign rand_sets[49]: 258  LLC: 2048
rand_sets[49]: 258
Assign rand_sets[50]: 633  LLC: 2048
rand_sets[50]: 633
Assign rand_sets[51]: 920  LLC: 2048
rand_sets[51]: 920
Assign rand_sets[52]: 204  LLC: 2048
rand_sets[52]: 204
Assign rand_sets[53]: 227  LLC: 2048
rand_sets[53]: 227
Assign rand_sets[54]: 1818  LLC: 2048
rand_sets[54]: 1818
Assign rand_sets[55]: 886  LLC: 2048
rand_sets[55]: 886
Assign rand_sets[56]: 1422  LLC: 2048
rand_sets[56]: 1422
Assign rand_sets[57]: 607  LLC: 2048
rand_sets[57]: 607
Assign rand_sets[58]: 217  LLC: 2048
rand_sets[58]: 217
Assign rand_sets[59]: 1945  LLC: 2048
rand_sets[59]: 1945
Assign rand_sets[60]: 143  LLC: 2048
rand_sets[60]: 143
Assign rand_sets[61]: 1311  LLC: 2048
rand_sets[61]: 1311
Assign rand_sets[62]: 319  LLC: 2048
rand_sets[62]: 319
Assign rand_sets[63]: 1846  LLC: 2048
rand_sets[63]: 1846
LLC Next Line Prefetcher
Heartbeat CPU 0 instructions: 10000002 cycles: 3572659 heartbeat IPC: 2.79904 cumulative IPC: 2.79904 (Simulation time: 0 hr 0 min 33 sec) 
Heartbeat CPU 0 instructions: 20000002 cycles: 7106909 heartbeat IPC: 2.82945 cumulative IPC: 2.81416 (Simulation time: 0 hr 1 min 6 sec) 
Heartbeat CPU 0 instructions: 30000001 cycles: 10656350 heartbeat IPC: 2.81734 cumulative IPC: 2.81522 (Simulation time: 0 hr 1 min 38 sec) 
Heartbeat CPU 0 instructions: 40000001 cycles: 14217329 heartbeat IPC: 2.80822 cumulative IPC: 2.81347 (Simulation time: 0 hr 2 min 11 sec) 
Heartbeat CPU 0 instructions: 50000001 cycles: 17773939 heartbeat IPC: 2.81167 cumulative IPC: 2.81311 (Simulation time: 0 hr 2 min 44 sec) 

Warmup complete CPU 0 instructions: 50000001 cycles: 17773939 (Simulation time: 0 hr 2 min 44 sec) 

Heartbeat CPU 0 instructions: 60000001 cycles: 34922417 heartbeat IPC: 0.583142 cumulative IPC: 0.583142 (Simulation time: 0 hr 3 min 8 sec) 
Heartbeat CPU 0 instructions: 70000002 cycles: 53383864 heartbeat IPC: 0.541669 cumulative IPC: 0.561641 (Simulation time: 0 hr 3 min 33 sec) 
Heartbeat CPU 0 instructions: 80000000 cycles: 77462737 heartbeat IPC: 0.415302 cumulative IPC: 0.502607 (Simulation time: 0 hr 3 min 58 sec) 
Heartbeat CPU 0 instructions: 90000000 cycles: 102811206 heartbeat IPC: 0.394501 cumulative IPC: 0.470382 (Simulation time: 0 hr 4 min 23 sec) 
Heartbeat CPU 0 instructions: 100000000 cycles: 122166952 heartbeat IPC: 0.516642 cumulative IPC: 0.478959 (Simulation time: 0 hr 4 min 48 sec) 
Heartbeat CPU 0 instructions: 110000000 cycles: 142284208 heartbeat IPC: 0.497086 cumulative IPC: 0.481888 (Simulation time: 0 hr 5 min 14 sec) 
Heartbeat CPU 0 instructions: 120000000 cycles: 174681419 heartbeat IPC: 0.308669 cumulative IPC: 0.446123 (Simulation time: 0 hr 5 min 40 sec) 
Heartbeat CPU 0 instructions: 130000001 cycles: 208135854 heartbeat IPC: 0.298914 cumulative IPC: 0.420252 (Simulation time: 0 hr 6 min 7 sec) 
Heartbeat CPU 0 instructions: 140000003 cycles: 228620183 heartbeat IPC: 0.488178 cumulative IPC: 0.426851 (Simulation time: 0 hr 6 min 31 sec) 
Heartbeat CPU 0 instructions: 150000000 cycles: 246137208 heartbeat IPC: 0.570873 cumulative IPC: 0.437899 (Simulation time: 0 hr 6 min 56 sec) 
Heartbeat CPU 0 instructions: 160000003 cycles: 263171119 heartbeat IPC: 0.587064 cumulative IPC: 0.448253 (Simulation time: 0 hr 7 min 22 sec) 
Heartbeat CPU 0 instructions: 170000000 cycles: 286699563 heartbeat IPC: 0.425017 cumulative IPC: 0.44622 (Simulation time: 0 hr 7 min 48 sec) 
Heartbeat CPU 0 instructions: 180000003 cycles: 315703009 heartbeat IPC: 0.344787 cumulative IPC: 0.436345 (Simulation time: 0 hr 8 min 15 sec) 
Heartbeat CPU 0 instructions: 190000000 cycles: 347620934 heartbeat IPC: 0.313303 cumulative IPC: 0.424439 (Simulation time: 0 hr 8 min 41 sec) 
Heartbeat CPU 0 instructions: 200000001 cycles: 379790905 heartbeat IPC: 0.310849 cumulative IPC: 0.414345 (Simulation time: 0 hr 9 min 8 sec) 
Heartbeat CPU 0 instructions: 210000002 cycles: 405749918 heartbeat IPC: 0.385223 cumulative IPC: 0.412397 (Simulation time: 0 hr 9 min 35 sec) 
Heartbeat CPU 0 instructions: 220000000 cycles: 422932146 heartbeat IPC: 0.581997 cumulative IPC: 0.419589 (Simulation time: 0 hr 10 min 0 sec) 
Heartbeat CPU 0 instructions: 230000001 cycles: 441058857 heartbeat IPC: 0.551672 cumulative IPC: 0.425245 (Simulation time: 0 hr 10 min 25 sec) 
Heartbeat CPU 0 instructions: 240000000 cycles: 457952724 heartbeat IPC: 0.591931 cumulative IPC: 0.431643 (Simulation time: 0 hr 10 min 49 sec) 
Heartbeat CPU 0 instructions: 250000003 cycles: 478319559 heartbeat IPC: 0.490994 cumulative IPC: 0.434268 (Simulation time: 0 hr 11 min 14 sec) 
Finished CPU 0 instructions: 200000002 cycles: 460545620 cumulative IPC: 0.434267 (Simulation time: 0 hr 11 min 14 sec) 

ChampSim completed all CPUs

Region of Interest Statistics

CPU 0 cumulative IPC: 0.434267 instructions: 200000002 cycles: 460545620
L1D TOTAL     ACCESS:   78778589  HIT:   68133089  MISS:   10645500
L1D LOAD      ACCESS:   38239849  HIT:   33123303  MISS:    5116546
L1D RFO       ACCESS:    8488543  HIT:    8389006  MISS:      99537
L1D PREFETCH  ACCESS:   32050197  HIT:   26620780  MISS:    5429417
L1D WRITEBACK ACCESS:          0  HIT:          0  MISS:          0
L1D PREFETCH  REQUESTED:   51804268  ISSUED:   42529435  USEFUL:     790015  USELESS:    5983039
L1D AVERAGE MISS LATENCY: 44.4922 cycles
L1I TOTAL     ACCESS:   36947604  HIT:   36947479  MISS:        125
L1I LOAD      ACCESS:   36947542  HIT:   36947465  MISS:         77
L1I RFO       ACCESS:          0  HIT:          0  MISS:          0
L1I PREFETCH  ACCESS:         62  HIT:         14  MISS:         48
L1I WRITEBACK ACCESS:          0  HIT:          0  MISS:          0
L1I PREFETCH  REQUESTED:        155  ISSUED:        155  USEFUL:         39  USELESS:          0
L1I AVERAGE MISS LATENCY: 153.624 cycles
L2C TOTAL     ACCESS:   13913063  HIT:    8146894  MISS:    5766169
L2C LOAD      ACCESS:    5101887  HIT:    2430561  MISS:    2671326
L2C RFO       ACCESS:      99528  HIT:      70029  MISS:      29499
L2C PREFETCH  ACCESS:    6786277  HIT:    3721594  MISS:    3064683
L2C WRITEBACK ACCESS:    1925371  HIT:    1924710  MISS:        661
L2C PREFETCH  REQUESTED:    4485824  ISSUED:    4485539  USEFUL:     145731  USELESS:    3637975
L2C AVERAGE MISS LATENCY: 48.1522 cycles
LLC TOTAL     ACCESS:   12145256  HIT:   11051418  MISS:    1093838
LLC LOAD      ACCESS:    2671135  HIT:    2398899  MISS:     272236
LLC RFO       ACCESS:      29498  HIT:      28927  MISS:        571
LLC PREFETCH  ACCESS:    8396936  HIT:    7598526  MISS:     798410
LLC WRITEBACK ACCESS:    1047687  HIT:    1025066  MISS:      22621
LLC PREFETCH  REQUESTED:    8399833  ISSUED:    8202174  USEFUL:     177005  USELESS:     806100
LLC AVERAGE MISS LATENCY: 175.363 cycles
Major fault: 0 Minor fault: 5938
CPU 0 L1D next line prefetcher final stats

L2C Signature Path Prefetcher final stats
LLC Next Line Prefetcher Final Stats: none

DRAM Statistics
 CHANNEL 0
 RQ ROW_BUFFER_HIT:     265216  ROW_BUFFER_MISS:     805811
 DBUS_CONGESTED:     248515
 WQ ROW_BUFFER_HIT:      24859  ROW_BUFFER_MISS:     285904  FULL:          0

 AVG_CONGESTED_CYCLE: 5

CPU 0 Branch Prediction Accuracy: 84.4288% MPKI: 29.3935 Average ROB Occupancy at Mispredict: 11.3175

Branch types
NOT_BRANCH: 162246023 81.123%
BRANCH_DIRECT_JUMP: 26872 0.013436%
BRANCH_INDIRECT: 0 0%
BRANCH_CONDITIONAL: 37717802 18.8589%
BRANCH_DIRECT_CALL: 4489 0.0022445%
BRANCH_INDIRECT_CALL: 0 0%
BRANCH_RETURN: 4489 0.0022445%
BRANCH_OTHER: 0 0%

