
*** ChampSim Multicore Out-of-Order Simulator ***

Warmup Instructions: 50000000
Simulation Instructions: 200000000
Number of CPUs: 1
LLC sets: 2048
LLC ways: 16
Off-chip DRAM Size: 4096 MB Channels: 1 Width: 64-bit Data Rate: 3200 MT/s

CPU 0 runs /scratch/vsgirelli/ChampSim/trabalho_traces//401.bzip2-38B.champsimtrace.xz
CPU 0 L1D stream prefetcher
L2C Signature Path Prefetcher
Initialize DRRIP state
Assign rand_sets[0]: 454  LLC: 2048
rand_sets[0]: 454
Assign rand_sets[1]: 1662  LLC: 2048
rand_sets[1]: 1662
Assign rand_sets[2]: 1921  LLC: 2048
rand_sets[2]: 1921
Assign rand_sets[3]: 1131  LLC: 2048
rand_sets[3]: 1131
Assign rand_sets[4]: 331  LLC: 2048
rand_sets[4]: 331
Assign rand_sets[5]: 1531  LLC: 2048
rand_sets[5]: 1531
Assign rand_sets[6]: 482  LLC: 2048
rand_sets[6]: 482
Assign rand_sets[7]: 1275  LLC: 2048
rand_sets[7]: 1275
Assign rand_sets[8]: 1876  LLC: 2048
rand_sets[8]: 1876
Assign rand_sets[9]: 2038  LLC: 2048
rand_sets[9]: 2038
Assign rand_sets[10]: 701  LLC: 2048
rand_sets[10]: 701
Assign rand_sets[11]: 479  LLC: 2048
rand_sets[11]: 479
Assign rand_sets[12]: 892  LLC: 2048
rand_sets[12]: 892
Assign rand_sets[13]: 1820  LLC: 2048
rand_sets[13]: 1820
Assign rand_sets[14]: 1505  LLC: 2048
rand_sets[14]: 1505
Assign rand_sets[15]: 1159  LLC: 2048
rand_sets[15]: 1159
Assign rand_sets[16]: 513  LLC: 2048
rand_sets[16]: 513
Assign rand_sets[17]: 703  LLC: 2048
rand_sets[17]: 703
Assign rand_sets[18]: 561  LLC: 2048
rand_sets[18]: 561
Assign rand_sets[19]: 990  LLC: 2048
rand_sets[19]: 990
Assign rand_sets[20]: 342  LLC: 2048
rand_sets[20]: 342
Assign rand_sets[21]: 882  LLC: 2048
rand_sets[21]: 882
Assign rand_sets[22]: 15  LLC: 2048
rand_sets[22]: 15
Assign rand_sets[23]: 71  LLC: 2048
rand_sets[23]: 71
Assign rand_sets[24]: 1127  LLC: 2048
rand_sets[24]: 1127
Assign rand_sets[25]: 1382  LLC: 2048
rand_sets[25]: 1382
Assign rand_sets[26]: 647  LLC: 2048
rand_sets[26]: 647
Assign rand_sets[27]: 857  LLC: 2048
rand_sets[27]: 857
Assign rand_sets[28]: 1450  LLC: 2048
rand_sets[28]: 1450
Assign rand_sets[29]: 1160  LLC: 2048
rand_sets[29]: 1160
Assign rand_sets[30]: 1852  LLC: 2048
rand_sets[30]: 1852
Assign rand_sets[31]: 1881  LLC: 2048
rand_sets[31]: 1881
Assign rand_sets[32]: 1770  LLC: 2048
rand_sets[32]: 1770
Assign rand_sets[33]: 1622  LLC: 2048
rand_sets[33]: 1622
Assign rand_sets[34]: 275  LLC: 2048
rand_sets[34]: 275
Assign rand_sets[35]: 635  LLC: 2048
rand_sets[35]: 635
Assign rand_sets[36]: 466  LLC: 2048
rand_sets[36]: 466
Assign rand_sets[37]: 1413  LLC: 2048
rand_sets[37]: 1413
Assign rand_sets[38]: 417  LLC: 2048
rand_sets[38]: 417
Assign rand_sets[39]: 472  LLC: 2048
rand_sets[39]: 472
Assign rand_sets[40]: 1340  LLC: 2048
rand_sets[40]: 1340
Assign rand_sets[41]: 852  LLC: 2048
rand_sets[41]: 852
Assign rand_sets[42]: 1365  LLC: 2048
rand_sets[42]: 1365
Assign rand_sets[43]: 47  LLC: 2048
rand_sets[43]: 47
Assign rand_sets[44]: 823  LLC: 2048
rand_sets[44]: 823
Assign rand_sets[45]: 686  LLC: 2048
rand_sets[45]: 686
Assign rand_sets[46]: 1637  LLC: 2048
rand_sets[46]: 1637
Assign rand_sets[47]: 1115  LLC: 2048
rand_sets[47]: 1115
Assign rand_sets[48]: 986  LLC: 2048
rand_sets[48]: 986
Assign rand_sets[49]: 258  LLC: 2048
rand_sets[49]: 258
Assign rand_sets[50]: 633  LLC: 2048
rand_sets[50]: 633
Assign rand_sets[51]: 920  LLC: 2048
rand_sets[51]: 920
Assign rand_sets[52]: 204  LLC: 2048
rand_sets[52]: 204
Assign rand_sets[53]: 227  LLC: 2048
rand_sets[53]: 227
Assign rand_sets[54]: 1818  LLC: 2048
rand_sets[54]: 1818
Assign rand_sets[55]: 886  LLC: 2048
rand_sets[55]: 886
Assign rand_sets[56]: 1422  LLC: 2048
rand_sets[56]: 1422
Assign rand_sets[57]: 607  LLC: 2048
rand_sets[57]: 607
Assign rand_sets[58]: 217  LLC: 2048
rand_sets[58]: 217
Assign rand_sets[59]: 1945  LLC: 2048
rand_sets[59]: 1945
Assign rand_sets[60]: 143  LLC: 2048
rand_sets[60]: 143
Assign rand_sets[61]: 1311  LLC: 2048
rand_sets[61]: 1311
Assign rand_sets[62]: 319  LLC: 2048
rand_sets[62]: 319
Assign rand_sets[63]: 1846  LLC: 2048
rand_sets[63]: 1846
LLC Next Line Prefetcher
Heartbeat CPU 0 instructions: 10000001 cycles: 2922701 heartbeat IPC: 3.42149 cumulative IPC: 3.42149 (Simulation time: 0 hr 0 min 22 sec) 
Heartbeat CPU 0 instructions: 20000003 cycles: 6821370 heartbeat IPC: 2.56498 cumulative IPC: 2.93196 (Simulation time: 0 hr 0 min 54 sec) 
Heartbeat CPU 0 instructions: 30000001 cycles: 11659996 heartbeat IPC: 2.0667 cumulative IPC: 2.5729 (Simulation time: 0 hr 1 min 31 sec) 
Heartbeat CPU 0 instructions: 40000001 cycles: 15799776 heartbeat IPC: 2.41559 cumulative IPC: 2.53168 (Simulation time: 0 hr 2 min 5 sec) 
Heartbeat CPU 0 instructions: 50000003 cycles: 19400357 heartbeat IPC: 2.77733 cumulative IPC: 2.57727 (Simulation time: 0 hr 2 min 38 sec) 

Warmup complete CPU 0 instructions: 50000003 cycles: 19400357 (Simulation time: 0 hr 2 min 38 sec) 

Heartbeat CPU 0 instructions: 60000000 cycles: 25157706 heartbeat IPC: 1.73691 cumulative IPC: 1.73691 (Simulation time: 0 hr 3 min 5 sec) 
Heartbeat CPU 0 instructions: 70000000 cycles: 30935406 heartbeat IPC: 1.73079 cumulative IPC: 1.73385 (Simulation time: 0 hr 3 min 31 sec) 
Heartbeat CPU 0 instructions: 80000001 cycles: 37189536 heartbeat IPC: 1.59894 cumulative IPC: 1.68642 (Simulation time: 0 hr 3 min 54 sec) 
Heartbeat CPU 0 instructions: 90000000 cycles: 44863625 heartbeat IPC: 1.30309 cumulative IPC: 1.57089 (Simulation time: 0 hr 4 min 20 sec) 
Heartbeat CPU 0 instructions: 100000003 cycles: 53698728 heartbeat IPC: 1.13185 cumulative IPC: 1.4578 (Simulation time: 0 hr 4 min 43 sec) 
Heartbeat CPU 0 instructions: 110000000 cycles: 63085499 heartbeat IPC: 1.06533 cumulative IPC: 1.37346 (Simulation time: 0 hr 5 min 8 sec) 
Heartbeat CPU 0 instructions: 120000001 cycles: 72481442 heartbeat IPC: 1.06429 cumulative IPC: 1.31874 (Simulation time: 0 hr 5 min 32 sec) 
Heartbeat CPU 0 instructions: 130000003 cycles: 82182478 heartbeat IPC: 1.03082 cumulative IPC: 1.27425 (Simulation time: 0 hr 5 min 56 sec) 
Heartbeat CPU 0 instructions: 140000000 cycles: 91876461 heartbeat IPC: 1.03157 cumulative IPC: 1.24179 (Simulation time: 0 hr 6 min 20 sec) 
Heartbeat CPU 0 instructions: 150000000 cycles: 101399120 heartbeat IPC: 1.05013 cumulative IPC: 1.21953 (Simulation time: 0 hr 6 min 45 sec) 
Heartbeat CPU 0 instructions: 160000001 cycles: 110984279 heartbeat IPC: 1.04328 cumulative IPC: 1.20108 (Simulation time: 0 hr 7 min 9 sec) 
Heartbeat CPU 0 instructions: 170000000 cycles: 121090064 heartbeat IPC: 0.989532 cumulative IPC: 1.18006 (Simulation time: 0 hr 7 min 34 sec) 
Heartbeat CPU 0 instructions: 180000001 cycles: 130737344 heartbeat IPC: 1.03656 cumulative IPC: 1.16763 (Simulation time: 0 hr 7 min 58 sec) 
Heartbeat CPU 0 instructions: 190000003 cycles: 139377579 heartbeat IPC: 1.15738 cumulative IPC: 1.16689 (Simulation time: 0 hr 8 min 20 sec) 
Heartbeat CPU 0 instructions: 200000001 cycles: 147558370 heartbeat IPC: 1.22238 cumulative IPC: 1.17043 (Simulation time: 0 hr 8 min 39 sec) 
Heartbeat CPU 0 instructions: 210000002 cycles: 155630909 heartbeat IPC: 1.23877 cumulative IPC: 1.17448 (Simulation time: 0 hr 9 min 0 sec) 
Heartbeat CPU 0 instructions: 220000000 cycles: 167590290 heartbeat IPC: 0.836164 cumulative IPC: 1.14718 (Simulation time: 0 hr 9 min 39 sec) 
Heartbeat CPU 0 instructions: 230000003 cycles: 179395776 heartbeat IPC: 0.847064 cumulative IPC: 1.12503 (Simulation time: 0 hr 10 min 16 sec) 
Heartbeat CPU 0 instructions: 240000002 cycles: 187305577 heartbeat IPC: 1.26425 cumulative IPC: 1.13159 (Simulation time: 0 hr 10 min 41 sec) 
Heartbeat CPU 0 instructions: 250000003 cycles: 192991158 heartbeat IPC: 1.75884 cumulative IPC: 1.15213 (Simulation time: 0 hr 11 min 8 sec) 
Finished CPU 0 instructions: 200000000 cycles: 173590801 cumulative IPC: 1.15213 (Simulation time: 0 hr 11 min 8 sec) 

ChampSim completed all CPUs

Region of Interest Statistics

CPU 0 cumulative IPC: 1.15213 instructions: 200000000 cycles: 173590801
L1D TOTAL     ACCESS:  178543593  HIT:  171678110  MISS:    6865483
L1D LOAD      ACCESS:   38270186  HIT:   36760029  MISS:    1510157
L1D RFO       ACCESS:   24291314  HIT:   23719381  MISS:     571933
L1D PREFETCH  ACCESS:  115982093  HIT:  111198700  MISS:    4783393
L1D WRITEBACK ACCESS:          0  HIT:          0  MISS:          0
L1D PREFETCH  REQUESTED: 3312832384  ISSUED:  156212151  USEFUL:     663358  USELESS:    4526562
L1D AVERAGE MISS LATENCY: 24.7095 cycles
L1I TOTAL     ACCESS:   34521886  HIT:   34521790  MISS:         96
L1I LOAD      ACCESS:   34521848  HIT:   34521787  MISS:         61
L1I RFO       ACCESS:          0  HIT:          0  MISS:          0
L1I PREFETCH  ACCESS:         38  HIT:          3  MISS:         35
L1I WRITEBACK ACCESS:          0  HIT:          0  MISS:          0
L1I PREFETCH  REQUESTED:        400  ISSUED:        400  USEFUL:        129  USELESS:          0
L1I AVERAGE MISS LATENCY: 80.4688 cycles
L2C TOTAL     ACCESS:    7958961  HIT:    6487937  MISS:    1471024
L2C LOAD      ACCESS:    1469666  HIT:    1254228  MISS:     215438
L2C RFO       ACCESS:     571672  HIT:     216950  MISS:     354722
L2C PREFETCH  ACCESS:    5133585  HIT:    4233575  MISS:     900010
L2C WRITEBACK ACCESS:     784038  HIT:     783184  MISS:        854
L2C PREFETCH  REQUESTED:    4635785  ISSUED:    4290568  USEFUL:     255766  USELESS:     721180
L2C AVERAGE MISS LATENCY: 48.0901 cycles
LLC TOTAL     ACCESS:    4206499  HIT:    3988499  MISS:     218000
LLC LOAD      ACCESS:     213947  HIT:     205289  MISS:       8658
LLC RFO       ACCESS:     354716  HIT:     257367  MISS:      97349
LLC PREFETCH  ACCESS:    3213864  HIT:    3105298  MISS:     108566
LLC WRITEBACK ACCESS:     423972  HIT:     420545  MISS:       3427
LLC PREFETCH  REQUESTED:    2769535  ISSUED:    2723551  USEFUL:      41879  USELESS:      84990
LLC AVERAGE MISS LATENCY: 183.754 cycles
Major fault: 0 Minor fault: 1206
CPU 0 L1D stream prefetcher final stats

L2C Signature Path Prefetcher final stats
LLC Next Line Prefetcher Final Stats: none

DRAM Statistics
 CHANNEL 0
 RQ ROW_BUFFER_HIT:      55560  ROW_BUFFER_MISS:     158942
 DBUS_CONGESTED:     130068
 WQ ROW_BUFFER_HIT:      31441  ROW_BUFFER_MISS:     115742  FULL:          0

 AVG_CONGESTED_CYCLE: 6

CPU 0 Branch Prediction Accuracy: 93.1077% MPKI: 9.94713 Average ROB Occupancy at Mispredict: 23.2733

Branch types
NOT_BRANCH: 171135633 85.5678%
BRANCH_DIRECT_JUMP: 2579338 1.28967%
BRANCH_INDIRECT: 0 0%
BRANCH_CONDITIONAL: 24284231 12.1421%
BRANCH_DIRECT_CALL: 1000418 0.500209%
BRANCH_INDIRECT_CALL: 0 0%
BRANCH_RETURN: 1000419 0.500209%
BRANCH_OTHER: 0 0%

