
*** ChampSim Multicore Out-of-Order Simulator ***

Warmup Instructions: 50000000
Simulation Instructions: 200000000
Number of CPUs: 1
LLC sets: 2048
LLC ways: 16
Off-chip DRAM Size: 4096 MB Channels: 1 Width: 64-bit Data Rate: 3200 MT/s

CPU 0 runs /scratch/vsgirelli/ChampSim/trabalho_traces//403.gcc-48B.champsimtrace.xz
CPU 0 L1D stream prefetcher
L2C Signature Path Prefetcher
Initialize DRRIP state
Assign rand_sets[0]: 454  LLC: 2048
rand_sets[0]: 454
Assign rand_sets[1]: 1662  LLC: 2048
rand_sets[1]: 1662
Assign rand_sets[2]: 1921  LLC: 2048
rand_sets[2]: 1921
Assign rand_sets[3]: 1131  LLC: 2048
rand_sets[3]: 1131
Assign rand_sets[4]: 331  LLC: 2048
rand_sets[4]: 331
Assign rand_sets[5]: 1531  LLC: 2048
rand_sets[5]: 1531
Assign rand_sets[6]: 482  LLC: 2048
rand_sets[6]: 482
Assign rand_sets[7]: 1275  LLC: 2048
rand_sets[7]: 1275
Assign rand_sets[8]: 1876  LLC: 2048
rand_sets[8]: 1876
Assign rand_sets[9]: 2038  LLC: 2048
rand_sets[9]: 2038
Assign rand_sets[10]: 701  LLC: 2048
rand_sets[10]: 701
Assign rand_sets[11]: 479  LLC: 2048
rand_sets[11]: 479
Assign rand_sets[12]: 892  LLC: 2048
rand_sets[12]: 892
Assign rand_sets[13]: 1820  LLC: 2048
rand_sets[13]: 1820
Assign rand_sets[14]: 1505  LLC: 2048
rand_sets[14]: 1505
Assign rand_sets[15]: 1159  LLC: 2048
rand_sets[15]: 1159
Assign rand_sets[16]: 513  LLC: 2048
rand_sets[16]: 513
Assign rand_sets[17]: 703  LLC: 2048
rand_sets[17]: 703
Assign rand_sets[18]: 561  LLC: 2048
rand_sets[18]: 561
Assign rand_sets[19]: 990  LLC: 2048
rand_sets[19]: 990
Assign rand_sets[20]: 342  LLC: 2048
rand_sets[20]: 342
Assign rand_sets[21]: 882  LLC: 2048
rand_sets[21]: 882
Assign rand_sets[22]: 15  LLC: 2048
rand_sets[22]: 15
Assign rand_sets[23]: 71  LLC: 2048
rand_sets[23]: 71
Assign rand_sets[24]: 1127  LLC: 2048
rand_sets[24]: 1127
Assign rand_sets[25]: 1382  LLC: 2048
rand_sets[25]: 1382
Assign rand_sets[26]: 647  LLC: 2048
rand_sets[26]: 647
Assign rand_sets[27]: 857  LLC: 2048
rand_sets[27]: 857
Assign rand_sets[28]: 1450  LLC: 2048
rand_sets[28]: 1450
Assign rand_sets[29]: 1160  LLC: 2048
rand_sets[29]: 1160
Assign rand_sets[30]: 1852  LLC: 2048
rand_sets[30]: 1852
Assign rand_sets[31]: 1881  LLC: 2048
rand_sets[31]: 1881
Assign rand_sets[32]: 1770  LLC: 2048
rand_sets[32]: 1770
Assign rand_sets[33]: 1622  LLC: 2048
rand_sets[33]: 1622
Assign rand_sets[34]: 275  LLC: 2048
rand_sets[34]: 275
Assign rand_sets[35]: 635  LLC: 2048
rand_sets[35]: 635
Assign rand_sets[36]: 466  LLC: 2048
rand_sets[36]: 466
Assign rand_sets[37]: 1413  LLC: 2048
rand_sets[37]: 1413
Assign rand_sets[38]: 417  LLC: 2048
rand_sets[38]: 417
Assign rand_sets[39]: 472  LLC: 2048
rand_sets[39]: 472
Assign rand_sets[40]: 1340  LLC: 2048
rand_sets[40]: 1340
Assign rand_sets[41]: 852  LLC: 2048
rand_sets[41]: 852
Assign rand_sets[42]: 1365  LLC: 2048
rand_sets[42]: 1365
Assign rand_sets[43]: 47  LLC: 2048
rand_sets[43]: 47
Assign rand_sets[44]: 823  LLC: 2048
rand_sets[44]: 823
Assign rand_sets[45]: 686  LLC: 2048
rand_sets[45]: 686
Assign rand_sets[46]: 1637  LLC: 2048
rand_sets[46]: 1637
Assign rand_sets[47]: 1115  LLC: 2048
rand_sets[47]: 1115
Assign rand_sets[48]: 986  LLC: 2048
rand_sets[48]: 986
Assign rand_sets[49]: 258  LLC: 2048
rand_sets[49]: 258
Assign rand_sets[50]: 633  LLC: 2048
rand_sets[50]: 633
Assign rand_sets[51]: 920  LLC: 2048
rand_sets[51]: 920
Assign rand_sets[52]: 204  LLC: 2048
rand_sets[52]: 204
Assign rand_sets[53]: 227  LLC: 2048
rand_sets[53]: 227
Assign rand_sets[54]: 1818  LLC: 2048
rand_sets[54]: 1818
Assign rand_sets[55]: 886  LLC: 2048
rand_sets[55]: 886
Assign rand_sets[56]: 1422  LLC: 2048
rand_sets[56]: 1422
Assign rand_sets[57]: 607  LLC: 2048
rand_sets[57]: 607
Assign rand_sets[58]: 217  LLC: 2048
rand_sets[58]: 217
Assign rand_sets[59]: 1945  LLC: 2048
rand_sets[59]: 1945
Assign rand_sets[60]: 143  LLC: 2048
rand_sets[60]: 143
Assign rand_sets[61]: 1311  LLC: 2048
rand_sets[61]: 1311
Assign rand_sets[62]: 319  LLC: 2048
rand_sets[62]: 319
Assign rand_sets[63]: 1846  LLC: 2048
rand_sets[63]: 1846
LLC Next Line Prefetcher
Heartbeat CPU 0 instructions: 10000002 cycles: 4172007 heartbeat IPC: 2.39693 cumulative IPC: 2.39693 (Simulation time: 0 hr 0 min 35 sec) 
Heartbeat CPU 0 instructions: 20000000 cycles: 8345749 heartbeat IPC: 2.39593 cumulative IPC: 2.39643 (Simulation time: 0 hr 1 min 9 sec) 
Heartbeat CPU 0 instructions: 30000001 cycles: 12518308 heartbeat IPC: 2.39661 cumulative IPC: 2.39649 (Simulation time: 0 hr 1 min 44 sec) 
Heartbeat CPU 0 instructions: 40000002 cycles: 16690830 heartbeat IPC: 2.39663 cumulative IPC: 2.39653 (Simulation time: 0 hr 2 min 19 sec) 
Heartbeat CPU 0 instructions: 50000002 cycles: 20868010 heartbeat IPC: 2.39396 cumulative IPC: 2.39601 (Simulation time: 0 hr 2 min 54 sec) 

Warmup complete CPU 0 instructions: 50000002 cycles: 20868010 (Simulation time: 0 hr 2 min 54 sec) 

Heartbeat CPU 0 instructions: 60000001 cycles: 28107737 heartbeat IPC: 1.38127 cumulative IPC: 1.38127 (Simulation time: 0 hr 3 min 33 sec) 
Heartbeat CPU 0 instructions: 70000002 cycles: 35367453 heartbeat IPC: 1.37746 cumulative IPC: 1.37936 (Simulation time: 0 hr 4 min 12 sec) 
Heartbeat CPU 0 instructions: 80000001 cycles: 42621463 heartbeat IPC: 1.37855 cumulative IPC: 1.37909 (Simulation time: 0 hr 4 min 51 sec) 
Heartbeat CPU 0 instructions: 90000002 cycles: 49906271 heartbeat IPC: 1.37272 cumulative IPC: 1.37749 (Simulation time: 0 hr 5 min 30 sec) 
Heartbeat CPU 0 instructions: 100000001 cycles: 57175435 heartbeat IPC: 1.37567 cumulative IPC: 1.37713 (Simulation time: 0 hr 6 min 9 sec) 
Heartbeat CPU 0 instructions: 110000000 cycles: 64393384 heartbeat IPC: 1.38543 cumulative IPC: 1.37851 (Simulation time: 0 hr 6 min 48 sec) 
Heartbeat CPU 0 instructions: 120000000 cycles: 71689353 heartbeat IPC: 1.37062 cumulative IPC: 1.37737 (Simulation time: 0 hr 7 min 27 sec) 
Heartbeat CPU 0 instructions: 130000003 cycles: 78980496 heartbeat IPC: 1.37153 cumulative IPC: 1.37664 (Simulation time: 0 hr 8 min 7 sec) 
Heartbeat CPU 0 instructions: 140000002 cycles: 86267582 heartbeat IPC: 1.37229 cumulative IPC: 1.37616 (Simulation time: 0 hr 8 min 46 sec) 
Heartbeat CPU 0 instructions: 150000000 cycles: 93538615 heartbeat IPC: 1.37532 cumulative IPC: 1.37607 (Simulation time: 0 hr 9 min 25 sec) 
Heartbeat CPU 0 instructions: 160000001 cycles: 100801584 heartbeat IPC: 1.37685 cumulative IPC: 1.37614 (Simulation time: 0 hr 10 min 4 sec) 
Heartbeat CPU 0 instructions: 170000002 cycles: 108067554 heartbeat IPC: 1.37628 cumulative IPC: 1.37615 (Simulation time: 0 hr 10 min 43 sec) 
Heartbeat CPU 0 instructions: 180000000 cycles: 115344579 heartbeat IPC: 1.37419 cumulative IPC: 1.376 (Simulation time: 0 hr 11 min 23 sec) 
Heartbeat CPU 0 instructions: 190000001 cycles: 122582754 heartbeat IPC: 1.38156 cumulative IPC: 1.3764 (Simulation time: 0 hr 12 min 2 sec) 
Heartbeat CPU 0 instructions: 200000002 cycles: 129837961 heartbeat IPC: 1.37832 cumulative IPC: 1.37653 (Simulation time: 0 hr 12 min 41 sec) 
Heartbeat CPU 0 instructions: 210000002 cycles: 137132995 heartbeat IPC: 1.3708 cumulative IPC: 1.37617 (Simulation time: 0 hr 13 min 20 sec) 
Heartbeat CPU 0 instructions: 220000000 cycles: 144402236 heartbeat IPC: 1.37566 cumulative IPC: 1.37614 (Simulation time: 0 hr 13 min 59 sec) 
Heartbeat CPU 0 instructions: 230000003 cycles: 151695361 heartbeat IPC: 1.37115 cumulative IPC: 1.37586 (Simulation time: 0 hr 14 min 39 sec) 
Heartbeat CPU 0 instructions: 240000000 cycles: 158947849 heartbeat IPC: 1.37884 cumulative IPC: 1.37602 (Simulation time: 0 hr 15 min 18 sec) 
Heartbeat CPU 0 instructions: 250000003 cycles: 166198893 heartbeat IPC: 1.37911 cumulative IPC: 1.37617 (Simulation time: 0 hr 15 min 57 sec) 
Finished CPU 0 instructions: 200000001 cycles: 145330883 cumulative IPC: 1.37617 (Simulation time: 0 hr 15 min 57 sec) 

ChampSim completed all CPUs

Region of Interest Statistics

CPU 0 cumulative IPC: 1.37617 instructions: 200000001 cycles: 145330883
L1D TOTAL     ACCESS:  171198255  HIT:  161436465  MISS:    9761790
L1D LOAD      ACCESS:   32543436  HIT:   30365931  MISS:    2177505
L1D RFO       ACCESS:   35309674  HIT:   35299955  MISS:       9719
L1D PREFETCH  ACCESS:  103345145  HIT:   95770579  MISS:    7574566
L1D WRITEBACK ACCESS:          0  HIT:          0  MISS:          0
L1D PREFETCH  REQUESTED: 2844939520  ISSUED:  135300953  USEFUL:    1407783  USELESS:    7666211
L1D AVERAGE MISS LATENCY: 17.798 cycles
L1I TOTAL     ACCESS:   52272074  HIT:   52272073  MISS:          1
L1I LOAD      ACCESS:   52272073  HIT:   52272072  MISS:          1
L1I RFO       ACCESS:          0  HIT:          0  MISS:          0
L1I PREFETCH  ACCESS:          1  HIT:          1  MISS:          0
L1I WRITEBACK ACCESS:          0  HIT:          0  MISS:          0
L1I PREFETCH  REQUESTED:        145  ISSUED:        145  USEFUL:         27  USELESS:          0
L1I AVERAGE MISS LATENCY: 44 cycles
L2C TOTAL     ACCESS:    9833734  HIT:    9713256  MISS:     120478
L2C LOAD      ACCESS:    2098031  HIT:    2068825  MISS:      29206
L2C RFO       ACCESS:       9712  HIT:       4109  MISS:       5603
L2C PREFETCH  ACCESS:    7667938  HIT:    7582269  MISS:      85669
L2C WRITEBACK ACCESS:      58053  HIT:      58053  MISS:          0
L2C PREFETCH  REQUESTED:     440287  ISSUED:     439592  USEFUL:      12102  USELESS:      85414
L2C AVERAGE MISS LATENCY: 176.8 cycles
LLC TOTAL     ACCESS:     361632  HIT:     220823  MISS:     140809
LLC LOAD      ACCESS:      29205  HIT:       6340  MISS:      22865
LLC RFO       ACCESS:       5603  HIT:        243  MISS:       5360
LLC PREFETCH  ACCESS:     311259  HIT:     199099  MISS:     112160
LLC WRITEBACK ACCESS:      15565  HIT:      15141  MISS:        424
LLC PREFETCH  REQUESTED:     279980  ISSUED:     276624  USEFUL:       7022  USELESS:     104997
LLC AVERAGE MISS LATENCY: 191.878 cycles
Major fault: 0 Minor fault: 3166
CPU 0 L1D stream prefetcher final stats

L2C Signature Path Prefetcher final stats
LLC Next Line Prefetcher Final Stats: none

DRAM Statistics
 CHANNEL 0
 RQ ROW_BUFFER_HIT:      46349  ROW_BUFFER_MISS:      94035
 DBUS_CONGESTED:      82083
 WQ ROW_BUFFER_HIT:       2331  ROW_BUFFER_MISS:      12422  FULL:          0

 AVG_CONGESTED_CYCLE: 6

CPU 0 Branch Prediction Accuracy: 99.8948% MPKI: 0.23418 Average ROB Occupancy at Mispredict: 163.153

Branch types
NOT_BRANCH: 155459753 77.7299%
BRANCH_DIRECT_JUMP: 6043339 3.02167%
BRANCH_INDIRECT: 2962107 1.48105%
BRANCH_CONDITIONAL: 29440141 14.7201%
BRANCH_DIRECT_CALL: 3030357 1.51518%
BRANCH_INDIRECT_CALL: 16973 0.0084865%
BRANCH_RETURN: 3047330 1.52366%
BRANCH_OTHER: 0 0%

