
*** ChampSim Multicore Out-of-Order Simulator ***

Warmup Instructions: 50000000
Simulation Instructions: 200000000
Number of CPUs: 1
LLC sets: 2048
LLC ways: 16
Off-chip DRAM Size: 4096 MB Channels: 1 Width: 64-bit Data Rate: 3200 MT/s

CPU 0 runs /scratch/vsgirelli/ChampSim/trabalho_traces//453.povray-252B.champsimtrace.xz
CPU 0 L1D stream prefetcher
L2C Signature Path Prefetcher
Initialize DRRIP state
Assign rand_sets[0]: 454  LLC: 2048
rand_sets[0]: 454
Assign rand_sets[1]: 1662  LLC: 2048
rand_sets[1]: 1662
Assign rand_sets[2]: 1921  LLC: 2048
rand_sets[2]: 1921
Assign rand_sets[3]: 1131  LLC: 2048
rand_sets[3]: 1131
Assign rand_sets[4]: 331  LLC: 2048
rand_sets[4]: 331
Assign rand_sets[5]: 1531  LLC: 2048
rand_sets[5]: 1531
Assign rand_sets[6]: 482  LLC: 2048
rand_sets[6]: 482
Assign rand_sets[7]: 1275  LLC: 2048
rand_sets[7]: 1275
Assign rand_sets[8]: 1876  LLC: 2048
rand_sets[8]: 1876
Assign rand_sets[9]: 2038  LLC: 2048
rand_sets[9]: 2038
Assign rand_sets[10]: 701  LLC: 2048
rand_sets[10]: 701
Assign rand_sets[11]: 479  LLC: 2048
rand_sets[11]: 479
Assign rand_sets[12]: 892  LLC: 2048
rand_sets[12]: 892
Assign rand_sets[13]: 1820  LLC: 2048
rand_sets[13]: 1820
Assign rand_sets[14]: 1505  LLC: 2048
rand_sets[14]: 1505
Assign rand_sets[15]: 1159  LLC: 2048
rand_sets[15]: 1159
Assign rand_sets[16]: 513  LLC: 2048
rand_sets[16]: 513
Assign rand_sets[17]: 703  LLC: 2048
rand_sets[17]: 703
Assign rand_sets[18]: 561  LLC: 2048
rand_sets[18]: 561
Assign rand_sets[19]: 990  LLC: 2048
rand_sets[19]: 990
Assign rand_sets[20]: 342  LLC: 2048
rand_sets[20]: 342
Assign rand_sets[21]: 882  LLC: 2048
rand_sets[21]: 882
Assign rand_sets[22]: 15  LLC: 2048
rand_sets[22]: 15
Assign rand_sets[23]: 71  LLC: 2048
rand_sets[23]: 71
Assign rand_sets[24]: 1127  LLC: 2048
rand_sets[24]: 1127
Assign rand_sets[25]: 1382  LLC: 2048
rand_sets[25]: 1382
Assign rand_sets[26]: 647  LLC: 2048
rand_sets[26]: 647
Assign rand_sets[27]: 857  LLC: 2048
rand_sets[27]: 857
Assign rand_sets[28]: 1450  LLC: 2048
rand_sets[28]: 1450
Assign rand_sets[29]: 1160  LLC: 2048
rand_sets[29]: 1160
Assign rand_sets[30]: 1852  LLC: 2048
rand_sets[30]: 1852
Assign rand_sets[31]: 1881  LLC: 2048
rand_sets[31]: 1881
Assign rand_sets[32]: 1770  LLC: 2048
rand_sets[32]: 1770
Assign rand_sets[33]: 1622  LLC: 2048
rand_sets[33]: 1622
Assign rand_sets[34]: 275  LLC: 2048
rand_sets[34]: 275
Assign rand_sets[35]: 635  LLC: 2048
rand_sets[35]: 635
Assign rand_sets[36]: 466  LLC: 2048
rand_sets[36]: 466
Assign rand_sets[37]: 1413  LLC: 2048
rand_sets[37]: 1413
Assign rand_sets[38]: 417  LLC: 2048
rand_sets[38]: 417
Assign rand_sets[39]: 472  LLC: 2048
rand_sets[39]: 472
Assign rand_sets[40]: 1340  LLC: 2048
rand_sets[40]: 1340
Assign rand_sets[41]: 852  LLC: 2048
rand_sets[41]: 852
Assign rand_sets[42]: 1365  LLC: 2048
rand_sets[42]: 1365
Assign rand_sets[43]: 47  LLC: 2048
rand_sets[43]: 47
Assign rand_sets[44]: 823  LLC: 2048
rand_sets[44]: 823
Assign rand_sets[45]: 686  LLC: 2048
rand_sets[45]: 686
Assign rand_sets[46]: 1637  LLC: 2048
rand_sets[46]: 1637
Assign rand_sets[47]: 1115  LLC: 2048
rand_sets[47]: 1115
Assign rand_sets[48]: 986  LLC: 2048
rand_sets[48]: 986
Assign rand_sets[49]: 258  LLC: 2048
rand_sets[49]: 258
Assign rand_sets[50]: 633  LLC: 2048
rand_sets[50]: 633
Assign rand_sets[51]: 920  LLC: 2048
rand_sets[51]: 920
Assign rand_sets[52]: 204  LLC: 2048
rand_sets[52]: 204
Assign rand_sets[53]: 227  LLC: 2048
rand_sets[53]: 227
Assign rand_sets[54]: 1818  LLC: 2048
rand_sets[54]: 1818
Assign rand_sets[55]: 886  LLC: 2048
rand_sets[55]: 886
Assign rand_sets[56]: 1422  LLC: 2048
rand_sets[56]: 1422
Assign rand_sets[57]: 607  LLC: 2048
rand_sets[57]: 607
Assign rand_sets[58]: 217  LLC: 2048
rand_sets[58]: 217
Assign rand_sets[59]: 1945  LLC: 2048
rand_sets[59]: 1945
Assign rand_sets[60]: 143  LLC: 2048
rand_sets[60]: 143
Assign rand_sets[61]: 1311  LLC: 2048
rand_sets[61]: 1311
Assign rand_sets[62]: 319  LLC: 2048
rand_sets[62]: 319
Assign rand_sets[63]: 1846  LLC: 2048
rand_sets[63]: 1846
LLC Next Line Prefetcher
Heartbeat CPU 0 instructions: 10000002 cycles: 5164084 heartbeat IPC: 1.93645 cumulative IPC: 1.93645 (Simulation time: 0 hr 0 min 37 sec) 
Heartbeat CPU 0 instructions: 20000000 cycles: 10279829 heartbeat IPC: 1.95475 cumulative IPC: 1.94556 (Simulation time: 0 hr 1 min 14 sec) 
Heartbeat CPU 0 instructions: 30000002 cycles: 15400271 heartbeat IPC: 1.95296 cumulative IPC: 1.94802 (Simulation time: 0 hr 1 min 52 sec) 
Heartbeat CPU 0 instructions: 40000003 cycles: 20501834 heartbeat IPC: 1.96018 cumulative IPC: 1.95105 (Simulation time: 0 hr 2 min 29 sec) 
Heartbeat CPU 0 instructions: 50000001 cycles: 25594035 heartbeat IPC: 1.96379 cumulative IPC: 1.95358 (Simulation time: 0 hr 3 min 6 sec) 

Warmup complete CPU 0 instructions: 50000001 cycles: 25594035 (Simulation time: 0 hr 3 min 6 sec) 

Heartbeat CPU 0 instructions: 60000003 cycles: 36351147 heartbeat IPC: 0.929618 cumulative IPC: 0.929618 (Simulation time: 0 hr 3 min 47 sec) 
Heartbeat CPU 0 instructions: 70000002 cycles: 47032153 heartbeat IPC: 0.936241 cumulative IPC: 0.932918 (Simulation time: 0 hr 4 min 29 sec) 
Heartbeat CPU 0 instructions: 80000001 cycles: 57620378 heartbeat IPC: 0.944445 cumulative IPC: 0.936729 (Simulation time: 0 hr 5 min 11 sec) 
Heartbeat CPU 0 instructions: 90000001 cycles: 68150179 heartbeat IPC: 0.949686 cumulative IPC: 0.939935 (Simulation time: 0 hr 5 min 53 sec) 
Heartbeat CPU 0 instructions: 100000003 cycles: 78669154 heartbeat IPC: 0.950663 cumulative IPC: 0.942061 (Simulation time: 0 hr 6 min 34 sec) 
Heartbeat CPU 0 instructions: 110000000 cycles: 89193980 heartbeat IPC: 0.950134 cumulative IPC: 0.943397 (Simulation time: 0 hr 7 min 16 sec) 
Heartbeat CPU 0 instructions: 120000000 cycles: 99713199 heartbeat IPC: 0.950641 cumulative IPC: 0.944425 (Simulation time: 0 hr 7 min 57 sec) 
Heartbeat CPU 0 instructions: 130000000 cycles: 110262627 heartbeat IPC: 0.947919 cumulative IPC: 0.94486 (Simulation time: 0 hr 8 min 39 sec) 
Heartbeat CPU 0 instructions: 140000002 cycles: 120836642 heartbeat IPC: 0.945715 cumulative IPC: 0.944955 (Simulation time: 0 hr 9 min 20 sec) 
Heartbeat CPU 0 instructions: 150000001 cycles: 131422266 heartbeat IPC: 0.944677 cumulative IPC: 0.944927 (Simulation time: 0 hr 10 min 2 sec) 
Heartbeat CPU 0 instructions: 160000001 cycles: 142055414 heartbeat IPC: 0.940455 cumulative IPC: 0.944519 (Simulation time: 0 hr 10 min 43 sec) 
Heartbeat CPU 0 instructions: 170000000 cycles: 152926080 heartbeat IPC: 0.919907 cumulative IPC: 0.942418 (Simulation time: 0 hr 11 min 25 sec) 
Heartbeat CPU 0 instructions: 180000000 cycles: 163943832 heartbeat IPC: 0.907626 cumulative IPC: 0.939647 (Simulation time: 0 hr 12 min 7 sec) 
Heartbeat CPU 0 instructions: 190000001 cycles: 175208795 heartbeat IPC: 0.887708 cumulative IPC: 0.935737 (Simulation time: 0 hr 12 min 50 sec) 
Heartbeat CPU 0 instructions: 200000000 cycles: 186540094 heartbeat IPC: 0.882511 cumulative IPC: 0.931989 (Simulation time: 0 hr 13 min 32 sec) 
Heartbeat CPU 0 instructions: 210000000 cycles: 197854011 heartbeat IPC: 0.883867 cumulative IPC: 0.928829 (Simulation time: 0 hr 14 min 14 sec) 
Heartbeat CPU 0 instructions: 220000000 cycles: 209165569 heartbeat IPC: 0.884052 cumulative IPC: 0.926069 (Simulation time: 0 hr 14 min 57 sec) 
Heartbeat CPU 0 instructions: 230000001 cycles: 220524998 heartbeat IPC: 0.880326 cumulative IPC: 0.923404 (Simulation time: 0 hr 15 min 39 sec) 
Heartbeat CPU 0 instructions: 240000002 cycles: 231911810 heartbeat IPC: 0.878209 cumulative IPC: 0.92091 (Simulation time: 0 hr 16 min 21 sec) 
Heartbeat CPU 0 instructions: 250000003 cycles: 243169263 heartbeat IPC: 0.8883 cumulative IPC: 0.919222 (Simulation time: 0 hr 17 min 2 sec) 
Finished CPU 0 instructions: 200000002 cycles: 217575228 cumulative IPC: 0.919222 (Simulation time: 0 hr 17 min 2 sec) 

ChampSim completed all CPUs

Region of Interest Statistics

CPU 0 cumulative IPC: 0.919222 instructions: 200000002 cycles: 217575228
L1D TOTAL     ACCESS:  220993047  HIT:  208611111  MISS:   12381936
L1D LOAD      ACCESS:   39800997  HIT:   37236722  MISS:    2564275
L1D RFO       ACCESS:   27402293  HIT:   27052711  MISS:     349582
L1D PREFETCH  ACCESS:  153789757  HIT:  144321678  MISS:    9468079
L1D WRITEBACK ACCESS:          0  HIT:          0  MISS:          0
L1D PREFETCH  REQUESTED: 3473633856  ISSUED:  201841271  USEFUL:    2184038  USELESS:    9017912
L1D AVERAGE MISS LATENCY: 15.6142 cycles
L1I TOTAL     ACCESS:   43879704  HIT:   42985945  MISS:     893759
L1I LOAD      ACCESS:   43354453  HIT:   42788951  MISS:     565502
L1I RFO       ACCESS:          0  HIT:          0  MISS:          0
L1I PREFETCH  ACCESS:     525251  HIT:     196994  MISS:     328257
L1I WRITEBACK ACCESS:          0  HIT:          0  MISS:          0
L1I PREFETCH  REQUESTED:    1550292  ISSUED:    1550292  USEFUL:     290010  USELESS:     139458
L1I AVERAGE MISS LATENCY: 12.4493 cycles
L2C TOTAL     ACCESS:   13900737  HIT:   13896456  MISS:       4281
L2C LOAD      ACCESS:    2549313  HIT:    2548866  MISS:        447
L2C RFO       ACCESS:     346453  HIT:     346228  MISS:        225
L2C PREFETCH  ACCESS:   10385108  HIT:   10381499  MISS:       3609
L2C WRITEBACK ACCESS:     619863  HIT:     619863  MISS:          0
L2C PREFETCH  REQUESTED:     755206  ISSUED:     754968  USEFUL:       2460  USELESS:       2533
L2C AVERAGE MISS LATENCY: 70.5543 cycles
LLC TOTAL     ACCESS:     860419  HIT:     857635  MISS:       2784
LLC LOAD      ACCESS:        446  HIT:        298  MISS:        148
LLC RFO       ACCESS:        225  HIT:         66  MISS:        159
LLC PREFETCH  ACCESS:     859644  HIT:     857167  MISS:       2477
LLC WRITEBACK ACCESS:        104  HIT:        104  MISS:          0
LLC PREFETCH  REQUESTED:     588119  ISSUED:     579029  USEFUL:        404  USELESS:         50
LLC AVERAGE MISS LATENCY: 149.426 cycles
Major fault: 0 Minor fault: 242
CPU 0 L1D stream prefetcher final stats

L2C Signature Path Prefetcher final stats
LLC Next Line Prefetcher Final Stats: none

DRAM Statistics
 CHANNEL 0
 RQ ROW_BUFFER_HIT:       1102  ROW_BUFFER_MISS:       1682
 DBUS_CONGESTED:       1072
 WQ ROW_BUFFER_HIT:          0  ROW_BUFFER_MISS:          0  FULL:          0

 AVG_CONGESTED_CYCLE: 6

CPU 0 Branch Prediction Accuracy: 99.7498% MPKI: 0.37001 Average ROB Occupancy at Mispredict: 244.186

Branch types
NOT_BRANCH: 170417206 85.2086%
BRANCH_DIRECT_JUMP: 1993409 0.996704%
BRANCH_INDIRECT: 43848 0.021924%
BRANCH_CONDITIONAL: 18138844 9.06942%
BRANCH_DIRECT_CALL: 3391304 1.69565%
BRANCH_INDIRECT_CALL: 1312033 0.656016%
BRANCH_RETURN: 4703339 2.35167%
BRANCH_OTHER: 0 0%

